REMARK  Name = ../refined-set-2016/3m8u/3m8u_pocket.pdb
REMARK  276 active torsions:
REMARK  status: ('A' for Active; 'I' for Inactive)
REMARK    1  A    between atoms: _1  and  _3
REMARK    2  A    between atoms: _3  and  _4
REMARK    3  A    between atoms: _3  and  _6
REMARK    4  A    between atoms: _6  and  _7
REMARK    5  A    between atoms: _12  and  _14
REMARK    6  A    between atoms: _14  and  _15
REMARK    7  A    between atoms: _14  and  _17
REMARK    8  A    between atoms: _20  and  _22
REMARK    9  A    between atoms: _22  and  _23
REMARK   10  A    between atoms: _22  and  _25
REMARK   11  A    between atoms: _25  and  _26
REMARK   12  A    between atoms: _28  and  _30
REMARK   13  A    between atoms: _30  and  _31
REMARK   14  A    between atoms: _30  and  _33
REMARK   15  A    between atoms: _33  and  _34
REMARK   16  A    between atoms: _34  and  _35
REMARK   17  A    between atoms: _35  and  _36
REMARK   18  A    between atoms: _45  and  _47
REMARK   19  A    between atoms: _47  and  _48
REMARK   20  A    between atoms: _47  and  _50
REMARK   21  A    between atoms: _50  and  _51
REMARK   22  A    between atoms: _54  and  _56
REMARK   23  A    between atoms: _56  and  _57
REMARK   24  A    between atoms: _56  and  _59
REMARK   25  A    between atoms: _62  and  _64
REMARK   26  A    between atoms: _64  and  _65
REMARK   27  A    between atoms: _64  and  _67
REMARK   28  A    between atoms: _67  and  _68
REMARK   29  A    between atoms: _68  and  _69
REMARK   30  A    between atoms: _71  and  _73
REMARK   31  A    between atoms: _73  and  _74
REMARK   32  A    between atoms: _73  and  _76
REMARK   33  A    between atoms: _76  and  _77
REMARK   34  A    between atoms: _80  and  _82
REMARK   35  A    between atoms: _82  and  _83
REMARK   36  A    between atoms: _85  and  _87
REMARK   37  A    between atoms: _87  and  _88
REMARK   38  A    between atoms: _87  and  _90
REMARK   39  A    between atoms: _90  and  _91
REMARK   40  A    between atoms: _94  and  _96
REMARK   41  A    between atoms: _96  and  _97
REMARK   42  A    between atoms: _96  and  _99
REMARK   43  A    between atoms: _99  and  _100
REMARK   44  A    between atoms: _102  and  _104
REMARK   45  A    between atoms: _104  and  _105
REMARK   46  A    between atoms: _104  and  _107
REMARK   47  A    between atoms: _107  and  _108
REMARK   48  A    between atoms: _113  and  _114
REMARK   49  A    between atoms: _116  and  _118
REMARK   50  A    between atoms: _118  and  _119
REMARK   51  A    between atoms: _118  and  _121
REMARK   52  A    between atoms: _121  and  _122
REMARK   53  A    between atoms: _127  and  _129
REMARK   54  A    between atoms: _129  and  _130
REMARK   55  A    between atoms: _133  and  _135
REMARK   56  A    between atoms: _135  and  _136
REMARK   57  A    between atoms: _135  and  _138
REMARK   58  A    between atoms: _138  and  _139
REMARK   59  A    between atoms: _139  and  _140
REMARK   60  A    between atoms: _145  and  _147
REMARK   61  A    between atoms: _147  and  _148
REMARK   62  A    between atoms: _147  and  _150
REMARK   63  A    between atoms: _150  and  _151
REMARK   64  A    between atoms: _156  and  _157
REMARK   65  A    between atoms: _159  and  _161
REMARK   66  A    between atoms: _161  and  _162
REMARK   67  A    between atoms: _161  and  _164
REMARK   68  A    between atoms: _164  and  _165
REMARK   69  A    between atoms: _165  and  _166
REMARK   70  A    between atoms: _168  and  _170
REMARK   71  A    between atoms: _170  and  _171
REMARK   72  A    between atoms: _170  and  _173
REMARK   73  A    between atoms: _173  and  _174
REMARK   74  A    between atoms: _177  and  _179
REMARK   75  A    between atoms: _179  and  _180
REMARK   76  A    between atoms: _179  and  _182
REMARK   77  A    between atoms: _182  and  _183
REMARK   78  A    between atoms: _186  and  _188
REMARK   79  A    between atoms: _188  and  _189
REMARK   80  A    between atoms: _188  and  _191
REMARK   81  A    between atoms: _191  and  _192
REMARK   82  A    between atoms: _195  and  _197
REMARK   83  A    between atoms: _197  and  _198
REMARK   84  A    between atoms: _197  and  _200
REMARK   85  A    between atoms: _200  and  _201
REMARK   86  A    between atoms: _204  and  _206
REMARK   87  A    between atoms: _206  and  _207
REMARK   88  A    between atoms: _206  and  _209
REMARK   89  A    between atoms: _209  and  _210
REMARK   90  A    between atoms: _217  and  _218
REMARK   91  A    between atoms: _223  and  _225
REMARK   92  A    between atoms: _225  and  _226
REMARK   93  A    between atoms: _225  and  _228
REMARK   94  A    between atoms: _228  and  _229
REMARK   95  A    between atoms: _234  and  _236
REMARK   96  A    between atoms: _236  and  _237
REMARK   97  A    between atoms: _236  and  _239
REMARK   98  A    between atoms: _239  and  _240
REMARK   99  A    between atoms: _242  and  _244
REMARK  100  A    between atoms: _244  and  _245
REMARK  101  A    between atoms: _244  and  _247
REMARK  102  A    between atoms: _247  and  _248
REMARK  103  A    between atoms: _248  and  _249
REMARK  104  A    between atoms: _254  and  _256
REMARK  105  A    between atoms: _256  and  _257
REMARK  106  A    between atoms: _256  and  _259
REMARK  107  A    between atoms: _259  and  _260
REMARK  108  A    between atoms: _262  and  _264
REMARK  109  A    between atoms: _264  and  _265
REMARK  110  A    between atoms: _267  and  _269
REMARK  111  A    between atoms: _269  and  _270
REMARK  112  A    between atoms: _269  and  _272
REMARK  113  A    between atoms: _272  and  _273
REMARK  114  A    between atoms: _276  and  _278
REMARK  115  A    between atoms: _278  and  _279
REMARK  116  A    between atoms: _278  and  _281
REMARK  117  A    between atoms: _281  and  _282
REMARK  118  A    between atoms: _287  and  _289
REMARK  119  A    between atoms: _289  and  _290
REMARK  120  A    between atoms: _289  and  _292
REMARK  121  A    between atoms: _292  and  _293
REMARK  122  A    between atoms: _296  and  _298
REMARK  123  A    between atoms: _298  and  _299
REMARK  124  A    between atoms: _302  and  _304
REMARK  125  A    between atoms: _304  and  _305
REMARK  126  A    between atoms: _304  and  _307
REMARK  127  A    between atoms: _307  and  _308
REMARK  128  A    between atoms: _313  and  _314
REMARK  129  A    between atoms: _316  and  _318
REMARK  130  A    between atoms: _318  and  _319
REMARK  131  A    between atoms: _318  and  _321
REMARK  132  A    between atoms: _321  and  _322
REMARK  133  A    between atoms: _327  and  _328
REMARK  134  A    between atoms: _330  and  _332
REMARK  135  A    between atoms: _332  and  _333
REMARK  136  A    between atoms: _332  and  _335
REMARK  137  A    between atoms: _335  and  _336
REMARK  138  A    between atoms: _336  and  _337
REMARK  139  A    between atoms: _342  and  _344
REMARK  140  A    between atoms: _344  and  _345
REMARK  141  A    between atoms: _344  and  _347
REMARK  142  A    between atoms: _350  and  _352
REMARK  143  A    between atoms: _352  and  _353
REMARK  144  A    between atoms: _352  and  _355
REMARK  145  A    between atoms: _358  and  _360
REMARK  146  A    between atoms: _360  and  _361
REMARK  147  A    between atoms: _360  and  _363
REMARK  148  A    between atoms: _363  and  _364
REMARK  149  A    between atoms: _364  and  _365
REMARK  150  A    between atoms: _365  and  _366
REMARK  151  A    between atoms: _375  and  _377
REMARK  152  A    between atoms: _377  and  _378
REMARK  153  A    between atoms: _381  and  _383
REMARK  154  A    between atoms: _383  and  _384
REMARK  155  A    between atoms: _383  and  _386
REMARK  156  A    between atoms: _386  and  _387
REMARK  157  A    between atoms: _389  and  _391
REMARK  158  A    between atoms: _391  and  _392
REMARK  159  A    between atoms: _391  and  _394
REMARK  160  A    between atoms: _394  and  _395
REMARK  161  A    between atoms: _400  and  _402
REMARK  162  A    between atoms: _402  and  _403
REMARK  163  A    between atoms: _402  and  _405
REMARK  164  A    between atoms: _405  and  _406
REMARK  165  A    between atoms: _416  and  _418
REMARK  166  A    between atoms: _418  and  _419
REMARK  167  A    between atoms: _418  and  _421
REMARK  168  A    between atoms: _421  and  _422
REMARK  169  A    between atoms: _425  and  _427
REMARK  170  A    between atoms: _427  and  _428
REMARK  171  A    between atoms: _427  and  _430
REMARK  172  A    between atoms: _430  and  _431
REMARK  173  A    between atoms: _436  and  _437
REMARK  174  A    between atoms: _439  and  _441
REMARK  175  A    between atoms: _441  and  _442
REMARK  176  A    between atoms: _444  and  _446
REMARK  177  A    between atoms: _446  and  _447
REMARK  178  A    between atoms: _446  and  _449
REMARK  179  A    between atoms: _449  and  _450
REMARK  180  A    between atoms: _460  and  _462
REMARK  181  A    between atoms: _462  and  _463
REMARK  182  A    between atoms: _462  and  _465
REMARK  183  A    between atoms: _465  and  _466
REMARK  184  A    between atoms: _468  and  _470
REMARK  185  A    between atoms: _470  and  _471
REMARK  186  A    between atoms: _473  and  _475
REMARK  187  A    between atoms: _475  and  _476
REMARK  188  A    between atoms: _475  and  _478
REMARK  189  A    between atoms: _478  and  _479
REMARK  190  A    between atoms: _482  and  _484
REMARK  191  A    between atoms: _484  and  _485
REMARK  192  A    between atoms: _484  and  _487
REMARK  193  A    between atoms: _487  and  _488
REMARK  194  A    between atoms: _493  and  _495
REMARK  195  A    between atoms: _495  and  _496
REMARK  196  A    between atoms: _495  and  _498
REMARK  197  A    between atoms: _498  and  _499
REMARK  198  A    between atoms: _504  and  _506
REMARK  199  A    between atoms: _506  and  _507
REMARK  200  A    between atoms: _506  and  _509
REMARK  201  A    between atoms: _509  and  _510
REMARK  202  A    between atoms: _517  and  _518
REMARK  203  A    between atoms: _523  and  _525
REMARK  204  A    between atoms: _525  and  _526
REMARK  205  A    between atoms: _525  and  _528
REMARK  206  A    between atoms: _528  and  _529
REMARK  207  A    between atoms: _532  and  _534
REMARK  208  A    between atoms: _534  and  _535
REMARK  209  A    between atoms: _534  and  _537
REMARK  210  A    between atoms: _537  and  _538
REMARK  211  A    between atoms: _540  and  _542
REMARK  212  A    between atoms: _542  and  _543
REMARK  213  A    between atoms: _542  and  _545
REMARK  214  A    between atoms: _545  and  _546
REMARK  215  A    between atoms: _551  and  _552
REMARK  216  A    between atoms: _554  and  _556
REMARK  217  A    between atoms: _556  and  _557
REMARK  218  A    between atoms: _556  and  _559
REMARK  219  A    between atoms: _559  and  _560
REMARK  220  A    between atoms: _562  and  _564
REMARK  221  A    between atoms: _564  and  _565
REMARK  222  A    between atoms: _564  and  _567
REMARK  223  A    between atoms: _567  and  _568
REMARK  224  A    between atoms: _571  and  _573
REMARK  225  A    between atoms: _573  and  _574
REMARK  226  A    between atoms: _573  and  _576
REMARK  227  A    between atoms: _576  and  _577
REMARK  228  A    between atoms: _582  and  _584
REMARK  229  A    between atoms: _584  and  _585
REMARK  230  A    between atoms: _584  and  _587
REMARK  231  A    between atoms: _587  and  _588
REMARK  232  A    between atoms: _594  and  _596
REMARK  233  A    between atoms: _596  and  _597
REMARK  234  A    between atoms: _601  and  _602
REMARK  235  A    between atoms: _607  and  _609
REMARK  236  A    between atoms: _609  and  _610
REMARK  237  A    between atoms: _609  and  _612
REMARK  238  A    between atoms: _612  and  _613
REMARK  239  A    between atoms: _618  and  _619
REMARK  240  A    between atoms: _621  and  _623
REMARK  241  A    between atoms: _623  and  _624
REMARK  242  A    between atoms: _623  and  _626
REMARK  243  A    between atoms: _626  and  _627
REMARK  244  A    between atoms: _627  and  _628
REMARK  245  A    between atoms: _628  and  _629
REMARK  246  A    between atoms: _629  and  _630
REMARK  247  A    between atoms: _634  and  _636
REMARK  248  A    between atoms: _636  and  _637
REMARK  249  A    between atoms: _636  and  _639
REMARK  250  A    between atoms: _639  and  _640
REMARK  251  A    between atoms: _640  and  _641
REMARK  252  A    between atoms: _646  and  _648
REMARK  253  A    between atoms: _648  and  _649
REMARK  254  A    between atoms: _648  and  _651
REMARK  255  A    between atoms: _651  and  _652
REMARK  256  A    between atoms: _655  and  _656
REMARK  257  A    between atoms: _661  and  _663
REMARK  258  A    between atoms: _663  and  _664
REMARK  259  A    between atoms: _663  and  _666
REMARK  260  A    between atoms: _666  and  _667
REMARK  261  A    between atoms: _673  and  _675
REMARK  262  A    between atoms: _675  and  _676
REMARK  263  A    between atoms: _678  and  _680
REMARK  264  A    between atoms: _680  and  _681
REMARK  265  A    between atoms: _680  and  _683
REMARK  266  A    between atoms: _683  and  _684
REMARK  267  A    between atoms: _689  and  _690
REMARK  268  A    between atoms: _692  and  _694
REMARK  269  A    between atoms: _694  and  _695
REMARK  270  A    between atoms: _694  and  _697
REMARK  271  A    between atoms: _697  and  _698
REMARK  272  A    between atoms: _701  and  _703
REMARK  273  A    between atoms: _703  and  _704
REMARK  274  A    between atoms: _703  and  _706
REMARK  275  A    between atoms: _706  and  _707
REMARK  276  A    between atoms: _712  and  _713
REMARK                            x       y       z     vdW  Elec       q    Type
REMARK                         _______ _______ _______ _____ _____    ______ ____
ROOT
ATOM      1  CB  ASN A   1      18.205  -3.116 -16.308  0.00  0.00    +0.110 C 
ENDROOT
BRANCH   1   2
ATOM      2  CG  ASN A   1      17.652  -4.421 -15.762  0.00  0.00    +0.221 C 
ATOM      3  OD1 ASN A   1      17.082  -4.453 -14.678  0.00  0.00    -0.275 OA
ATOM      4  ND2 ASN A   1      17.818  -5.500 -16.517  0.00  0.00    -0.329 N 
ATOM      5 HD21 ASN A   1      17.457  -6.421 -16.195  0.00  0.00    +0.145 HD
ATOM      6 HD22 ASN A   1      18.309  -5.425 -17.431  0.00  0.00    +0.145 HD
ENDBRANCH   1   2
BRANCH   1   7
ATOM      7  CA  ASN A   1      18.414  -2.060 -15.219  0.00  0.00    +0.142 C 
BRANCH   7   8
ATOM      8  N   ASN A   1      18.831  -0.805 -15.829  0.00  0.00    -0.239 NA
ATOM      9  H   ASN A   1      19.514  -0.832 -16.613  0.00  0.00    +0.142 HD
ENDBRANCH   7   8
BRANCH   7  10
ATOM     10  C   ASN A   1      19.512  -2.506 -14.274  0.00  0.00    +0.225 C 
ATOM     11  O   ASN A   1      20.619  -2.782 -14.709  0.00  0.00    -0.287 OA
ENDBRANCH   7  10
ENDBRANCH   1   7
TORSDOF 4
REMARK  Name = ../refined-set-2016/3m8u/3m8u_pocket.pdb
REMARK  276 active torsions:
REMARK  status: ('A' for Active; 'I' for Inactive)
REMARK    1  A    between atoms: _1  and  _3
REMARK    2  A    between atoms: _3  and  _4
REMARK    3  A    between atoms: _3  and  _6
REMARK    4  A    between atoms: _6  and  _7
REMARK    5  A    between atoms: _12  and  _14
REMARK    6  A    between atoms: _14  and  _15
REMARK    7  A    between atoms: _14  and  _17
REMARK    8  A    between atoms: _20  and  _22
REMARK    9  A    between atoms: _22  and  _23
REMARK   10  A    between atoms: _22  and  _25
REMARK   11  A    between atoms: _25  and  _26
REMARK   12  A    between atoms: _28  and  _30
REMARK   13  A    between atoms: _30  and  _31
REMARK   14  A    between atoms: _30  and  _33
REMARK   15  A    between atoms: _33  and  _34
REMARK   16  A    between atoms: _34  and  _35
REMARK   17  A    between atoms: _35  and  _36
REMARK   18  A    between atoms: _45  and  _47
REMARK   19  A    between atoms: _47  and  _48
REMARK   20  A    between atoms: _47  and  _50
REMARK   21  A    between atoms: _50  and  _51
REMARK   22  A    between atoms: _54  and  _56
REMARK   23  A    between atoms: _56  and  _57
REMARK   24  A    between atoms: _56  and  _59
REMARK   25  A    between atoms: _62  and  _64
REMARK   26  A    between atoms: _64  and  _65
REMARK   27  A    between atoms: _64  and  _67
REMARK   28  A    between atoms: _67  and  _68
REMARK   29  A    between atoms: _68  and  _69
REMARK   30  A    between atoms: _71  and  _73
REMARK   31  A    between atoms: _73  and  _74
REMARK   32  A    between atoms: _73  and  _76
REMARK   33  A    between atoms: _76  and  _77
REMARK   34  A    between atoms: _80  and  _82
REMARK   35  A    between atoms: _82  and  _83
REMARK   36  A    between atoms: _85  and  _87
REMARK   37  A    between atoms: _87  and  _88
REMARK   38  A    between atoms: _87  and  _90
REMARK   39  A    between atoms: _90  and  _91
REMARK   40  A    between atoms: _94  and  _96
REMARK   41  A    between atoms: _96  and  _97
REMARK   42  A    between atoms: _96  and  _99
REMARK   43  A    between atoms: _99  and  _100
REMARK   44  A    between atoms: _102  and  _104
REMARK   45  A    between atoms: _104  and  _105
REMARK   46  A    between atoms: _104  and  _107
REMARK   47  A    between atoms: _107  and  _108
REMARK   48  A    between atoms: _113  and  _114
REMARK   49  A    between atoms: _116  and  _118
REMARK   50  A    between atoms: _118  and  _119
REMARK   51  A    between atoms: _118  and  _121
REMARK   52  A    between atoms: _121  and  _122
REMARK   53  A    between atoms: _127  and  _129
REMARK   54  A    between atoms: _129  and  _130
REMARK   55  A    between atoms: _133  and  _135
REMARK   56  A    between atoms: _135  and  _136
REMARK   57  A    between atoms: _135  and  _138
REMARK   58  A    between atoms: _138  and  _139
REMARK   59  A    between atoms: _139  and  _140
REMARK   60  A    between atoms: _145  and  _147
REMARK   61  A    between atoms: _147  and  _148
REMARK   62  A    between atoms: _147  and  _150
REMARK   63  A    between atoms: _150  and  _151
REMARK   64  A    between atoms: _156  and  _157
REMARK   65  A    between atoms: _159  and  _161
REMARK   66  A    between atoms: _161  and  _162
REMARK   67  A    between atoms: _161  and  _164
REMARK   68  A    between atoms: _164  and  _165
REMARK   69  A    between atoms: _165  and  _166
REMARK   70  A    between atoms: _168  and  _170
REMARK   71  A    between atoms: _170  and  _171
REMARK   72  A    between atoms: _170  and  _173
REMARK   73  A    between atoms: _173  and  _174
REMARK   74  A    between atoms: _177  and  _179
REMARK   75  A    between atoms: _179  and  _180
REMARK   76  A    between atoms: _179  and  _182
REMARK   77  A    between atoms: _182  and  _183
REMARK   78  A    between atoms: _186  and  _188
REMARK   79  A    between atoms: _188  and  _189
REMARK   80  A    between atoms: _188  and  _191
REMARK   81  A    between atoms: _191  and  _192
REMARK   82  A    between atoms: _195  and  _197
REMARK   83  A    between atoms: _197  and  _198
REMARK   84  A    between atoms: _197  and  _200
REMARK   85  A    between atoms: _200  and  _201
REMARK   86  A    between atoms: _204  and  _206
REMARK   87  A    between atoms: _206  and  _207
REMARK   88  A    between atoms: _206  and  _209
REMARK   89  A    between atoms: _209  and  _210
REMARK   90  A    between atoms: _217  and  _218
REMARK   91  A    between atoms: _223  and  _225
REMARK   92  A    between atoms: _225  and  _226
REMARK   93  A    between atoms: _225  and  _228
REMARK   94  A    between atoms: _228  and  _229
REMARK   95  A    between atoms: _234  and  _236
REMARK   96  A    between atoms: _236  and  _237
REMARK   97  A    between atoms: _236  and  _239
REMARK   98  A    between atoms: _239  and  _240
REMARK   99  A    between atoms: _242  and  _244
REMARK  100  A    between atoms: _244  and  _245
REMARK  101  A    between atoms: _244  and  _247
REMARK  102  A    between atoms: _247  and  _248
REMARK  103  A    between atoms: _248  and  _249
REMARK  104  A    between atoms: _254  and  _256
REMARK  105  A    between atoms: _256  and  _257
REMARK  106  A    between atoms: _256  and  _259
REMARK  107  A    between atoms: _259  and  _260
REMARK  108  A    between atoms: _262  and  _264
REMARK  109  A    between atoms: _264  and  _265
REMARK  110  A    between atoms: _267  and  _269
REMARK  111  A    between atoms: _269  and  _270
REMARK  112  A    between atoms: _269  and  _272
REMARK  113  A    between atoms: _272  and  _273
REMARK  114  A    between atoms: _276  and  _278
REMARK  115  A    between atoms: _278  and  _279
REMARK  116  A    between atoms: _278  and  _281
REMARK  117  A    between atoms: _281  and  _282
REMARK  118  A    between atoms: _287  and  _289
REMARK  119  A    between atoms: _289  and  _290
REMARK  120  A    between atoms: _289  and  _292
REMARK  121  A    between atoms: _292  and  _293
REMARK  122  A    between atoms: _296  and  _298
REMARK  123  A    between atoms: _298  and  _299
REMARK  124  A    between atoms: _302  and  _304
REMARK  125  A    between atoms: _304  and  _305
REMARK  126  A    between atoms: _304  and  _307
REMARK  127  A    between atoms: _307  and  _308
REMARK  128  A    between atoms: _313  and  _314
REMARK  129  A    between atoms: _316  and  _318
REMARK  130  A    between atoms: _318  and  _319
REMARK  131  A    between atoms: _318  and  _321
REMARK  132  A    between atoms: _321  and  _322
REMARK  133  A    between atoms: _327  and  _328
REMARK  134  A    between atoms: _330  and  _332
REMARK  135  A    between atoms: _332  and  _333
REMARK  136  A    between atoms: _332  and  _335
REMARK  137  A    between atoms: _335  and  _336
REMARK  138  A    between atoms: _336  and  _337
REMARK  139  A    between atoms: _342  and  _344
REMARK  140  A    between atoms: _344  and  _345
REMARK  141  A    between atoms: _344  and  _347
REMARK  142  A    between atoms: _350  and  _352
REMARK  143  A    between atoms: _352  and  _353
REMARK  144  A    between atoms: _352  and  _355
REMARK  145  A    between atoms: _358  and  _360
REMARK  146  A    between atoms: _360  and  _361
REMARK  147  A    between atoms: _360  and  _363
REMARK  148  A    between atoms: _363  and  _364
REMARK  149  A    between atoms: _364  and  _365
REMARK  150  A    between atoms: _365  and  _366
REMARK  151  A    between atoms: _375  and  _377
REMARK  152  A    between atoms: _377  and  _378
REMARK  153  A    between atoms: _381  and  _383
REMARK  154  A    between atoms: _383  and  _384
REMARK  155  A    between atoms: _383  and  _386
REMARK  156  A    between atoms: _386  and  _387
REMARK  157  A    between atoms: _389  and  _391
REMARK  158  A    between atoms: _391  and  _392
REMARK  159  A    between atoms: _391  and  _394
REMARK  160  A    between atoms: _394  and  _395
REMARK  161  A    between atoms: _400  and  _402
REMARK  162  A    between atoms: _402  and  _403
REMARK  163  A    between atoms: _402  and  _405
REMARK  164  A    between atoms: _405  and  _406
REMARK  165  A    between atoms: _416  and  _418
REMARK  166  A    between atoms: _418  and  _419
REMARK  167  A    between atoms: _418  and  _421
REMARK  168  A    between atoms: _421  and  _422
REMARK  169  A    between atoms: _425  and  _427
REMARK  170  A    between atoms: _427  and  _428
REMARK  171  A    between atoms: _427  and  _430
REMARK  172  A    between atoms: _430  and  _431
REMARK  173  A    between atoms: _436  and  _437
REMARK  174  A    between atoms: _439  and  _441
REMARK  175  A    between atoms: _441  and  _442
REMARK  176  A    between atoms: _444  and  _446
REMARK  177  A    between atoms: _446  and  _447
REMARK  178  A    between atoms: _446  and  _449
REMARK  179  A    between atoms: _449  and  _450
REMARK  180  A    between atoms: _460  and  _462
REMARK  181  A    between atoms: _462  and  _463
REMARK  182  A    between atoms: _462  and  _465
REMARK  183  A    between atoms: _465  and  _466
REMARK  184  A    between atoms: _468  and  _470
REMARK  185  A    between atoms: _470  and  _471
REMARK  186  A    between atoms: _473  and  _475
REMARK  187  A    between atoms: _475  and  _476
REMARK  188  A    between atoms: _475  and  _478
REMARK  189  A    between atoms: _478  and  _479
REMARK  190  A    between atoms: _482  and  _484
REMARK  191  A    between atoms: _484  and  _485
REMARK  192  A    between atoms: _484  and  _487
REMARK  193  A    between atoms: _487  and  _488
REMARK  194  A    between atoms: _493  and  _495
REMARK  195  A    between atoms: _495  and  _496
REMARK  196  A    between atoms: _495  and  _498
REMARK  197  A    between atoms: _498  and  _499
REMARK  198  A    between atoms: _504  and  _506
REMARK  199  A    between atoms: _506  and  _507
REMARK  200  A    between atoms: _506  and  _509
REMARK  201  A    between atoms: _509  and  _510
REMARK  202  A    between atoms: _517  and  _518
REMARK  203  A    between atoms: _523  and  _525
REMARK  204  A    between atoms: _525  and  _526
REMARK  205  A    between atoms: _525  and  _528
REMARK  206  A    between atoms: _528  and  _529
REMARK  207  A    between atoms: _532  and  _534
REMARK  208  A    between atoms: _534  and  _535
REMARK  209  A    between atoms: _534  and  _537
REMARK  210  A    between atoms: _537  and  _538
REMARK  211  A    between atoms: _540  and  _542
REMARK  212  A    between atoms: _542  and  _543
REMARK  213  A    between atoms: _542  and  _545
REMARK  214  A    between atoms: _545  and  _546
REMARK  215  A    between atoms: _551  and  _552
REMARK  216  A    between atoms: _554  and  _556
REMARK  217  A    between atoms: _556  and  _557
REMARK  218  A    between atoms: _556  and  _559
REMARK  219  A    between atoms: _559  and  _560
REMARK  220  A    between atoms: _562  and  _564
REMARK  221  A    between atoms: _564  and  _565
REMARK  222  A    between atoms: _564  and  _567
REMARK  223  A    between atoms: _567  and  _568
REMARK  224  A    between atoms: _571  and  _573
REMARK  225  A    between atoms: _573  and  _574
REMARK  226  A    between atoms: _573  and  _576
REMARK  227  A    between atoms: _576  and  _577
REMARK  228  A    between atoms: _582  and  _584
REMARK  229  A    between atoms: _584  and  _585
REMARK  230  A    between atoms: _584  and  _587
REMARK  231  A    between atoms: _587  and  _588
REMARK  232  A    between atoms: _594  and  _596
REMARK  233  A    between atoms: _596  and  _597
REMARK  234  A    between atoms: _601  and  _602
REMARK  235  A    between atoms: _607  and  _609
REMARK  236  A    between atoms: _609  and  _610
REMARK  237  A    between atoms: _609  and  _612
REMARK  238  A    between atoms: _612  and  _613
REMARK  239  A    between atoms: _618  and  _619
REMARK  240  A    between atoms: _621  and  _623
REMARK  241  A    between atoms: _623  and  _624
REMARK  242  A    between atoms: _623  and  _626
REMARK  243  A    between atoms: _626  and  _627
REMARK  244  A    between atoms: _627  and  _628
REMARK  245  A    between atoms: _628  and  _629
REMARK  246  A    between atoms: _629  and  _630
REMARK  247  A    between atoms: _634  and  _636
REMARK  248  A    between atoms: _636  and  _637
REMARK  249  A    between atoms: _636  and  _639
REMARK  250  A    between atoms: _639  and  _640
REMARK  251  A    between atoms: _640  and  _641
REMARK  252  A    between atoms: _646  and  _648
REMARK  253  A    between atoms: _648  and  _649
REMARK  254  A    between atoms: _648  and  _651
REMARK  255  A    between atoms: _651  and  _652
REMARK  256  A    between atoms: _655  and  _656
REMARK  257  A    between atoms: _661  and  _663
REMARK  258  A    between atoms: _663  and  _664
REMARK  259  A    between atoms: _663  and  _666
REMARK  260  A    between atoms: _666  and  _667
REMARK  261  A    between atoms: _673  and  _675
REMARK  262  A    between atoms: _675  and  _676
REMARK  263  A    between atoms: _678  and  _680
REMARK  264  A    between atoms: _680  and  _681
REMARK  265  A    between atoms: _680  and  _683
REMARK  266  A    between atoms: _683  and  _684
REMARK  267  A    between atoms: _689  and  _690
REMARK  268  A    between atoms: _692  and  _694
REMARK  269  A    between atoms: _694  and  _695
REMARK  270  A    between atoms: _694  and  _697
REMARK  271  A    between atoms: _697  and  _698
REMARK  272  A    between atoms: _701  and  _703
REMARK  273  A    between atoms: _703  and  _704
REMARK  274  A    between atoms: _703  and  _706
REMARK  275  A    between atoms: _706  and  _707
REMARK  276  A    between atoms: _712  and  _713
REMARK                            x       y       z     vdW  Elec       q    Type
REMARK                         _______ _______ _______ _____ _____    ______ ____
ROOT
ATOM      1  C   SER A   2      23.893  -9.546  -9.532  0.00  0.00    +0.243 C 
ATOM      2  O   SER A   2      24.762  -9.636  -8.663  0.00  0.00    -0.273 OA
ATOM      3  N   ARG A   3      24.058 -10.035 -10.760  0.00  0.00    -0.298 N 
ATOM      4  H   ARG A   3      23.305  -9.916 -11.467  0.00  0.00    +0.150 HD
ENDROOT
BRANCH   1   5
ATOM      5  CA  SER A   2      22.566  -8.842  -9.225  0.00  0.00    +0.178 C 
BRANCH   5   7
ATOM      6  C   VAL A   1      22.068  -7.221 -10.972  0.00  0.00    +0.238 C 
ATOM      7  N   SER A   2      21.821  -8.402 -10.408  0.00  0.00    -0.295 N 
ATOM      8  H   SER A   2      21.089  -9.021 -10.813  0.00  0.00    +0.150 HD
ATOM      9  O   VAL A   1      23.069  -6.561 -10.720  0.00  0.00    -0.274 OA
BRANCH   6  10
ATOM     10  CA  VAL A   1      21.051  -6.728 -11.993  0.00  0.00    +0.145 C 
BRANCH  10  11
ATOM     11  CB  VAL A   1      21.317  -7.395 -13.359  0.00  0.00    +0.025 C 
ATOM     12  CG2 VAL A   1      22.738  -7.115 -13.823  0.00  0.00    +0.002 C 
ATOM     13  CG1 VAL A   1      20.304  -6.908 -14.396  0.00  0.00    +0.002 C 
ENDBRANCH  10  11
BRANCH  10  14
ATOM     14  N   VAL A   1      21.095  -5.271 -12.091  0.00  0.00    -0.238 NA
ATOM     15  H   VAL A   1      21.969  -4.817 -12.425  0.00  0.00    +0.142 HD
ENDBRANCH  10  14
ENDBRANCH   6  10
ENDBRANCH   5   7
BRANCH   5  16
ATOM     16  CB  SER A   2      21.677  -9.748  -8.360  0.00  0.00    +0.166 C 
BRANCH  16  17
ATOM     17  OG  SER A   2      21.228 -10.870  -9.097  0.00  0.00    -0.380 OA
ATOM     18  H   SER A   2      20.704 -10.562  -9.878  0.00  0.00    +0.211 HD
ENDBRANCH  16  17
ENDBRANCH   5  16
ENDBRANCH   1   5
BRANCH   3  19
ATOM     19  CA  ARG A   3      25.289 -10.739 -11.124  0.00  0.00    +0.137 C 
BRANCH  19  20
ATOM     20  C   ARG A   3      25.674 -10.532 -12.589  0.00  0.00    +0.227 C 
ATOM     21  O   ARG A   3      24.831 -10.218 -13.435  0.00  0.00    -0.286 OA
ENDBRANCH  19  20
BRANCH  19  22
ATOM     22  CB  ARG A   3      25.143 -12.246 -10.845  0.00  0.00    +0.031 C 
BRANCH  22  23
ATOM     23  CG  ARG A   3      24.677 -12.547  -9.437  0.00  0.00    +0.045 C 
BRANCH  23  24
ATOM     24  CD  ARG A   3      24.766 -14.019  -9.074  0.00  0.00    +0.174 C 
BRANCH  24  25
ATOM     25  NE  ARG A   3      23.784 -14.857  -9.756  0.00  0.00    -0.265 N 
ATOM     26  CZ  ARG A   3      22.503 -14.973  -9.420  0.00  0.00    +0.342 C 
ATOM     27  NH2 ARG A   3      21.993 -14.261  -8.410  0.00  0.00    -0.292 N 
ATOM     28 HH21 ARG A   3      22.600 -13.607  -7.876  0.00  0.00    +0.255 HD
ATOM     29 HH22 ARG A   3      20.989 -14.362  -8.158  0.00  0.00    +0.255 HD
ATOM     30  NH1 ARG A   3      21.719 -15.794 -10.119  0.00  0.00    -0.292 N 
ATOM     31 HH11 ARG A   3      20.715 -15.894  -9.867  0.00  0.00    +0.255 HD
ATOM     32 HH12 ARG A   3      22.111 -16.334 -10.916  0.00  0.00    +0.255 HD
ATOM     33  HE  ARG A   3      24.114 -15.409 -10.573  0.00  0.00    +0.259 HD
ENDBRANCH  24  25
ENDBRANCH  23  24
ENDBRANCH  22  23
ENDBRANCH  19  22
ENDBRANCH   3  19
TORSDOF 13
REMARK  Name = ../refined-set-2016/3m8u/3m8u_pocket.pdb
REMARK  276 active torsions:
REMARK  status: ('A' for Active; 'I' for Inactive)
REMARK    1  A    between atoms: _1  and  _3
REMARK    2  A    between atoms: _3  and  _4
REMARK    3  A    between atoms: _3  and  _6
REMARK    4  A    between atoms: _6  and  _7
REMARK    5  A    between atoms: _12  and  _14
REMARK    6  A    between atoms: _14  and  _15
REMARK    7  A    between atoms: _14  and  _17
REMARK    8  A    between atoms: _20  and  _22
REMARK    9  A    between atoms: _22  and  _23
REMARK   10  A    between atoms: _22  and  _25
REMARK   11  A    between atoms: _25  and  _26
REMARK   12  A    between atoms: _28  and  _30
REMARK   13  A    between atoms: _30  and  _31
REMARK   14  A    between atoms: _30  and  _33
REMARK   15  A    between atoms: _33  and  _34
REMARK   16  A    between atoms: _34  and  _35
REMARK   17  A    between atoms: _35  and  _36
REMARK   18  A    between atoms: _45  and  _47
REMARK   19  A    between atoms: _47  and  _48
REMARK   20  A    between atoms: _47  and  _50
REMARK   21  A    between atoms: _50  and  _51
REMARK   22  A    between atoms: _54  and  _56
REMARK   23  A    between atoms: _56  and  _57
REMARK   24  A    between atoms: _56  and  _59
REMARK   25  A    between atoms: _62  and  _64
REMARK   26  A    between atoms: _64  and  _65
REMARK   27  A    between atoms: _64  and  _67
REMARK   28  A    between atoms: _67  and  _68
REMARK   29  A    between atoms: _68  and  _69
REMARK   30  A    between atoms: _71  and  _73
REMARK   31  A    between atoms: _73  and  _74
REMARK   32  A    between atoms: _73  and  _76
REMARK   33  A    between atoms: _76  and  _77
REMARK   34  A    between atoms: _80  and  _82
REMARK   35  A    between atoms: _82  and  _83
REMARK   36  A    between atoms: _85  and  _87
REMARK   37  A    between atoms: _87  and  _88
REMARK   38  A    between atoms: _87  and  _90
REMARK   39  A    between atoms: _90  and  _91
REMARK   40  A    between atoms: _94  and  _96
REMARK   41  A    between atoms: _96  and  _97
REMARK   42  A    between atoms: _96  and  _99
REMARK   43  A    between atoms: _99  and  _100
REMARK   44  A    between atoms: _102  and  _104
REMARK   45  A    between atoms: _104  and  _105
REMARK   46  A    between atoms: _104  and  _107
REMARK   47  A    between atoms: _107  and  _108
REMARK   48  A    between atoms: _113  and  _114
REMARK   49  A    between atoms: _116  and  _118
REMARK   50  A    between atoms: _118  and  _119
REMARK   51  A    between atoms: _118  and  _121
REMARK   52  A    between atoms: _121  and  _122
REMARK   53  A    between atoms: _127  and  _129
REMARK   54  A    between atoms: _129  and  _130
REMARK   55  A    between atoms: _133  and  _135
REMARK   56  A    between atoms: _135  and  _136
REMARK   57  A    between atoms: _135  and  _138
REMARK   58  A    between atoms: _138  and  _139
REMARK   59  A    between atoms: _139  and  _140
REMARK   60  A    between atoms: _145  and  _147
REMARK   61  A    between atoms: _147  and  _148
REMARK   62  A    between atoms: _147  and  _150
REMARK   63  A    between atoms: _150  and  _151
REMARK   64  A    between atoms: _156  and  _157
REMARK   65  A    between atoms: _159  and  _161
REMARK   66  A    between atoms: _161  and  _162
REMARK   67  A    between atoms: _161  and  _164
REMARK   68  A    between atoms: _164  and  _165
REMARK   69  A    between atoms: _165  and  _166
REMARK   70  A    between atoms: _168  and  _170
REMARK   71  A    between atoms: _170  and  _171
REMARK   72  A    between atoms: _170  and  _173
REMARK   73  A    between atoms: _173  and  _174
REMARK   74  A    between atoms: _177  and  _179
REMARK   75  A    between atoms: _179  and  _180
REMARK   76  A    between atoms: _179  and  _182
REMARK   77  A    between atoms: _182  and  _183
REMARK   78  A    between atoms: _186  and  _188
REMARK   79  A    between atoms: _188  and  _189
REMARK   80  A    between atoms: _188  and  _191
REMARK   81  A    between atoms: _191  and  _192
REMARK   82  A    between atoms: _195  and  _197
REMARK   83  A    between atoms: _197  and  _198
REMARK   84  A    between atoms: _197  and  _200
REMARK   85  A    between atoms: _200  and  _201
REMARK   86  A    between atoms: _204  and  _206
REMARK   87  A    between atoms: _206  and  _207
REMARK   88  A    between atoms: _206  and  _209
REMARK   89  A    between atoms: _209  and  _210
REMARK   90  A    between atoms: _217  and  _218
REMARK   91  A    between atoms: _223  and  _225
REMARK   92  A    between atoms: _225  and  _226
REMARK   93  A    between atoms: _225  and  _228
REMARK   94  A    between atoms: _228  and  _229
REMARK   95  A    between atoms: _234  and  _236
REMARK   96  A    between atoms: _236  and  _237
REMARK   97  A    between atoms: _236  and  _239
REMARK   98  A    between atoms: _239  and  _240
REMARK   99  A    between atoms: _242  and  _244
REMARK  100  A    between atoms: _244  and  _245
REMARK  101  A    between atoms: _244  and  _247
REMARK  102  A    between atoms: _247  and  _248
REMARK  103  A    between atoms: _248  and  _249
REMARK  104  A    between atoms: _254  and  _256
REMARK  105  A    between atoms: _256  and  _257
REMARK  106  A    between atoms: _256  and  _259
REMARK  107  A    between atoms: _259  and  _260
REMARK  108  A    between atoms: _262  and  _264
REMARK  109  A    between atoms: _264  and  _265
REMARK  110  A    between atoms: _267  and  _269
REMARK  111  A    between atoms: _269  and  _270
REMARK  112  A    between atoms: _269  and  _272
REMARK  113  A    between atoms: _272  and  _273
REMARK  114  A    between atoms: _276  and  _278
REMARK  115  A    between atoms: _278  and  _279
REMARK  116  A    between atoms: _278  and  _281
REMARK  117  A    between atoms: _281  and  _282
REMARK  118  A    between atoms: _287  and  _289
REMARK  119  A    between atoms: _289  and  _290
REMARK  120  A    between atoms: _289  and  _292
REMARK  121  A    between atoms: _292  and  _293
REMARK  122  A    between atoms: _296  and  _298
REMARK  123  A    between atoms: _298  and  _299
REMARK  124  A    between atoms: _302  and  _304
REMARK  125  A    between atoms: _304  and  _305
REMARK  126  A    between atoms: _304  and  _307
REMARK  127  A    between atoms: _307  and  _308
REMARK  128  A    between atoms: _313  and  _314
REMARK  129  A    between atoms: _316  and  _318
REMARK  130  A    between atoms: _318  and  _319
REMARK  131  A    between atoms: _318  and  _321
REMARK  132  A    between atoms: _321  and  _322
REMARK  133  A    between atoms: _327  and  _328
REMARK  134  A    between atoms: _330  and  _332
REMARK  135  A    between atoms: _332  and  _333
REMARK  136  A    between atoms: _332  and  _335
REMARK  137  A    between atoms: _335  and  _336
REMARK  138  A    between atoms: _336  and  _337
REMARK  139  A    between atoms: _342  and  _344
REMARK  140  A    between atoms: _344  and  _345
REMARK  141  A    between atoms: _344  and  _347
REMARK  142  A    between atoms: _350  and  _352
REMARK  143  A    between atoms: _352  and  _353
REMARK  144  A    between atoms: _352  and  _355
REMARK  145  A    between atoms: _358  and  _360
REMARK  146  A    between atoms: _360  and  _361
REMARK  147  A    between atoms: _360  and  _363
REMARK  148  A    between atoms: _363  and  _364
REMARK  149  A    between atoms: _364  and  _365
REMARK  150  A    between atoms: _365  and  _366
REMARK  151  A    between atoms: _375  and  _377
REMARK  152  A    between atoms: _377  and  _378
REMARK  153  A    between atoms: _381  and  _383
REMARK  154  A    between atoms: _383  and  _384
REMARK  155  A    between atoms: _383  and  _386
REMARK  156  A    between atoms: _386  and  _387
REMARK  157  A    between atoms: _389  and  _391
REMARK  158  A    between atoms: _391  and  _392
REMARK  159  A    between atoms: _391  and  _394
REMARK  160  A    between atoms: _394  and  _395
REMARK  161  A    between atoms: _400  and  _402
REMARK  162  A    between atoms: _402  and  _403
REMARK  163  A    between atoms: _402  and  _405
REMARK  164  A    between atoms: _405  and  _406
REMARK  165  A    between atoms: _416  and  _418
REMARK  166  A    between atoms: _418  and  _419
REMARK  167  A    between atoms: _418  and  _421
REMARK  168  A    between atoms: _421  and  _422
REMARK  169  A    between atoms: _425  and  _427
REMARK  170  A    between atoms: _427  and  _428
REMARK  171  A    between atoms: _427  and  _430
REMARK  172  A    between atoms: _430  and  _431
REMARK  173  A    between atoms: _436  and  _437
REMARK  174  A    between atoms: _439  and  _441
REMARK  175  A    between atoms: _441  and  _442
REMARK  176  A    between atoms: _444  and  _446
REMARK  177  A    between atoms: _446  and  _447
REMARK  178  A    between atoms: _446  and  _449
REMARK  179  A    between atoms: _449  and  _450
REMARK  180  A    between atoms: _460  and  _462
REMARK  181  A    between atoms: _462  and  _463
REMARK  182  A    between atoms: _462  and  _465
REMARK  183  A    between atoms: _465  and  _466
REMARK  184  A    between atoms: _468  and  _470
REMARK  185  A    between atoms: _470  and  _471
REMARK  186  A    between atoms: _473  and  _475
REMARK  187  A    between atoms: _475  and  _476
REMARK  188  A    between atoms: _475  and  _478
REMARK  189  A    between atoms: _478  and  _479
REMARK  190  A    between atoms: _482  and  _484
REMARK  191  A    between atoms: _484  and  _485
REMARK  192  A    between atoms: _484  and  _487
REMARK  193  A    between atoms: _487  and  _488
REMARK  194  A    between atoms: _493  and  _495
REMARK  195  A    between atoms: _495  and  _496
REMARK  196  A    between atoms: _495  and  _498
REMARK  197  A    between atoms: _498  and  _499
REMARK  198  A    between atoms: _504  and  _506
REMARK  199  A    between atoms: _506  and  _507
REMARK  200  A    between atoms: _506  and  _509
REMARK  201  A    between atoms: _509  and  _510
REMARK  202  A    between atoms: _517  and  _518
REMARK  203  A    between atoms: _523  and  _525
REMARK  204  A    between atoms: _525  and  _526
REMARK  205  A    between atoms: _525  and  _528
REMARK  206  A    between atoms: _528  and  _529
REMARK  207  A    between atoms: _532  and  _534
REMARK  208  A    between atoms: _534  and  _535
REMARK  209  A    between atoms: _534  and  _537
REMARK  210  A    between atoms: _537  and  _538
REMARK  211  A    between atoms: _540  and  _542
REMARK  212  A    between atoms: _542  and  _543
REMARK  213  A    between atoms: _542  and  _545
REMARK  214  A    between atoms: _545  and  _546
REMARK  215  A    between atoms: _551  and  _552
REMARK  216  A    between atoms: _554  and  _556
REMARK  217  A    between atoms: _556  and  _557
REMARK  218  A    between atoms: _556  and  _559
REMARK  219  A    between atoms: _559  and  _560
REMARK  220  A    between atoms: _562  and  _564
REMARK  221  A    between atoms: _564  and  _565
REMARK  222  A    between atoms: _564  and  _567
REMARK  223  A    between atoms: _567  and  _568
REMARK  224  A    between atoms: _571  and  _573
REMARK  225  A    between atoms: _573  and  _574
REMARK  226  A    between atoms: _573  and  _576
REMARK  227  A    between atoms: _576  and  _577
REMARK  228  A    between atoms: _582  and  _584
REMARK  229  A    between atoms: _584  and  _585
REMARK  230  A    between atoms: _584  and  _587
REMARK  231  A    between atoms: _587  and  _588
REMARK  232  A    between atoms: _594  and  _596
REMARK  233  A    between atoms: _596  and  _597
REMARK  234  A    between atoms: _601  and  _602
REMARK  235  A    between atoms: _607  and  _609
REMARK  236  A    between atoms: _609  and  _610
REMARK  237  A    between atoms: _609  and  _612
REMARK  238  A    between atoms: _612  and  _613
REMARK  239  A    between atoms: _618  and  _619
REMARK  240  A    between atoms: _621  and  _623
REMARK  241  A    between atoms: _623  and  _624
REMARK  242  A    between atoms: _623  and  _626
REMARK  243  A    between atoms: _626  and  _627
REMARK  244  A    between atoms: _627  and  _628
REMARK  245  A    between atoms: _628  and  _629
REMARK  246  A    between atoms: _629  and  _630
REMARK  247  A    between atoms: _634  and  _636
REMARK  248  A    between atoms: _636  and  _637
REMARK  249  A    between atoms: _636  and  _639
REMARK  250  A    between atoms: _639  and  _640
REMARK  251  A    between atoms: _640  and  _641
REMARK  252  A    between atoms: _646  and  _648
REMARK  253  A    between atoms: _648  and  _649
REMARK  254  A    between atoms: _648  and  _651
REMARK  255  A    between atoms: _651  and  _652
REMARK  256  A    between atoms: _655  and  _656
REMARK  257  A    between atoms: _661  and  _663
REMARK  258  A    between atoms: _663  and  _664
REMARK  259  A    between atoms: _663  and  _666
REMARK  260  A    between atoms: _666  and  _667
REMARK  261  A    between atoms: _673  and  _675
REMARK  262  A    between atoms: _675  and  _676
REMARK  263  A    between atoms: _678  and  _680
REMARK  264  A    between atoms: _680  and  _681
REMARK  265  A    between atoms: _680  and  _683
REMARK  266  A    between atoms: _683  and  _684
REMARK  267  A    between atoms: _689  and  _690
REMARK  268  A    between atoms: _692  and  _694
REMARK  269  A    between atoms: _694  and  _695
REMARK  270  A    between atoms: _694  and  _697
REMARK  271  A    between atoms: _697  and  _698
REMARK  272  A    between atoms: _701  and  _703
REMARK  273  A    between atoms: _703  and  _704
REMARK  274  A    between atoms: _703  and  _706
REMARK  275  A    between atoms: _706  and  _707
REMARK  276  A    between atoms: _712  and  _713
REMARK                            x       y       z     vdW  Elec       q    Type
REMARK                         _______ _______ _______ _____ _____    ______ ____
ROOT
ATOM      1  CA  THR A   1      27.801 -16.365 -17.611  0.00  0.00    +0.160 C 
ENDROOT
BRANCH   1   2
ATOM      2  N   THR A   1      26.876 -15.292 -17.276  0.00  0.00    -0.237 NA
ATOM      3  H   THR A   1      25.888 -15.522 -17.047  0.00  0.00    +0.142 HD
ENDBRANCH   1   2
BRANCH   1   4
ATOM      4  CB  THR A   1      27.132 -17.742 -17.442  0.00  0.00    +0.134 C 
ATOM      5  CG2 THR A   1      28.077 -18.860 -17.872  0.00  0.00    +0.034 C 
BRANCH   4   6
ATOM      6  OG1 THR A   1      26.782 -17.931 -16.064  0.00  0.00    -0.383 OA
ATOM      7  HG1 THR A   1      26.154 -17.219 -15.784  0.00  0.00    +0.210 HD
ENDBRANCH   4   6
ENDBRANCH   1   4
BRANCH   1   8
ATOM      8  C   THR A   1      28.324 -16.192 -19.039  0.00  0.00    +0.227 C 
ATOM      9  O   THR A   1      29.494 -16.448 -19.311  0.00  0.00    -0.287 OA
ENDBRANCH   1   8
TORSDOF 4
REMARK  Name = ../refined-set-2016/3m8u/3m8u_pocket.pdb
REMARK  276 active torsions:
REMARK  status: ('A' for Active; 'I' for Inactive)
REMARK    1  A    between atoms: _1  and  _3
REMARK    2  A    between atoms: _3  and  _4
REMARK    3  A    between atoms: _3  and  _6
REMARK    4  A    between atoms: _6  and  _7
REMARK    5  A    between atoms: _12  and  _14
REMARK    6  A    between atoms: _14  and  _15
REMARK    7  A    between atoms: _14  and  _17
REMARK    8  A    between atoms: _20  and  _22
REMARK    9  A    between atoms: _22  and  _23
REMARK   10  A    between atoms: _22  and  _25
REMARK   11  A    between atoms: _25  and  _26
REMARK   12  A    between atoms: _28  and  _30
REMARK   13  A    between atoms: _30  and  _31
REMARK   14  A    between atoms: _30  and  _33
REMARK   15  A    between atoms: _33  and  _34
REMARK   16  A    between atoms: _34  and  _35
REMARK   17  A    between atoms: _35  and  _36
REMARK   18  A    between atoms: _45  and  _47
REMARK   19  A    between atoms: _47  and  _48
REMARK   20  A    between atoms: _47  and  _50
REMARK   21  A    between atoms: _50  and  _51
REMARK   22  A    between atoms: _54  and  _56
REMARK   23  A    between atoms: _56  and  _57
REMARK   24  A    between atoms: _56  and  _59
REMARK   25  A    between atoms: _62  and  _64
REMARK   26  A    between atoms: _64  and  _65
REMARK   27  A    between atoms: _64  and  _67
REMARK   28  A    between atoms: _67  and  _68
REMARK   29  A    between atoms: _68  and  _69
REMARK   30  A    between atoms: _71  and  _73
REMARK   31  A    between atoms: _73  and  _74
REMARK   32  A    between atoms: _73  and  _76
REMARK   33  A    between atoms: _76  and  _77
REMARK   34  A    between atoms: _80  and  _82
REMARK   35  A    between atoms: _82  and  _83
REMARK   36  A    between atoms: _85  and  _87
REMARK   37  A    between atoms: _87  and  _88
REMARK   38  A    between atoms: _87  and  _90
REMARK   39  A    between atoms: _90  and  _91
REMARK   40  A    between atoms: _94  and  _96
REMARK   41  A    between atoms: _96  and  _97
REMARK   42  A    between atoms: _96  and  _99
REMARK   43  A    between atoms: _99  and  _100
REMARK   44  A    between atoms: _102  and  _104
REMARK   45  A    between atoms: _104  and  _105
REMARK   46  A    between atoms: _104  and  _107
REMARK   47  A    between atoms: _107  and  _108
REMARK   48  A    between atoms: _113  and  _114
REMARK   49  A    between atoms: _116  and  _118
REMARK   50  A    between atoms: _118  and  _119
REMARK   51  A    between atoms: _118  and  _121
REMARK   52  A    between atoms: _121  and  _122
REMARK   53  A    between atoms: _127  and  _129
REMARK   54  A    between atoms: _129  and  _130
REMARK   55  A    between atoms: _133  and  _135
REMARK   56  A    between atoms: _135  and  _136
REMARK   57  A    between atoms: _135  and  _138
REMARK   58  A    between atoms: _138  and  _139
REMARK   59  A    between atoms: _139  and  _140
REMARK   60  A    between atoms: _145  and  _147
REMARK   61  A    between atoms: _147  and  _148
REMARK   62  A    between atoms: _147  and  _150
REMARK   63  A    between atoms: _150  and  _151
REMARK   64  A    between atoms: _156  and  _157
REMARK   65  A    between atoms: _159  and  _161
REMARK   66  A    between atoms: _161  and  _162
REMARK   67  A    between atoms: _161  and  _164
REMARK   68  A    between atoms: _164  and  _165
REMARK   69  A    between atoms: _165  and  _166
REMARK   70  A    between atoms: _168  and  _170
REMARK   71  A    between atoms: _170  and  _171
REMARK   72  A    between atoms: _170  and  _173
REMARK   73  A    between atoms: _173  and  _174
REMARK   74  A    between atoms: _177  and  _179
REMARK   75  A    between atoms: _179  and  _180
REMARK   76  A    between atoms: _179  and  _182
REMARK   77  A    between atoms: _182  and  _183
REMARK   78  A    between atoms: _186  and  _188
REMARK   79  A    between atoms: _188  and  _189
REMARK   80  A    between atoms: _188  and  _191
REMARK   81  A    between atoms: _191  and  _192
REMARK   82  A    between atoms: _195  and  _197
REMARK   83  A    between atoms: _197  and  _198
REMARK   84  A    between atoms: _197  and  _200
REMARK   85  A    between atoms: _200  and  _201
REMARK   86  A    between atoms: _204  and  _206
REMARK   87  A    between atoms: _206  and  _207
REMARK   88  A    between atoms: _206  and  _209
REMARK   89  A    between atoms: _209  and  _210
REMARK   90  A    between atoms: _217  and  _218
REMARK   91  A    between atoms: _223  and  _225
REMARK   92  A    between atoms: _225  and  _226
REMARK   93  A    between atoms: _225  and  _228
REMARK   94  A    between atoms: _228  and  _229
REMARK   95  A    between atoms: _234  and  _236
REMARK   96  A    between atoms: _236  and  _237
REMARK   97  A    between atoms: _236  and  _239
REMARK   98  A    between atoms: _239  and  _240
REMARK   99  A    between atoms: _242  and  _244
REMARK  100  A    between atoms: _244  and  _245
REMARK  101  A    between atoms: _244  and  _247
REMARK  102  A    between atoms: _247  and  _248
REMARK  103  A    between atoms: _248  and  _249
REMARK  104  A    between atoms: _254  and  _256
REMARK  105  A    between atoms: _256  and  _257
REMARK  106  A    between atoms: _256  and  _259
REMARK  107  A    between atoms: _259  and  _260
REMARK  108  A    between atoms: _262  and  _264
REMARK  109  A    between atoms: _264  and  _265
REMARK  110  A    between atoms: _267  and  _269
REMARK  111  A    between atoms: _269  and  _270
REMARK  112  A    between atoms: _269  and  _272
REMARK  113  A    between atoms: _272  and  _273
REMARK  114  A    between atoms: _276  and  _278
REMARK  115  A    between atoms: _278  and  _279
REMARK  116  A    between atoms: _278  and  _281
REMARK  117  A    between atoms: _281  and  _282
REMARK  118  A    between atoms: _287  and  _289
REMARK  119  A    between atoms: _289  and  _290
REMARK  120  A    between atoms: _289  and  _292
REMARK  121  A    between atoms: _292  and  _293
REMARK  122  A    between atoms: _296  and  _298
REMARK  123  A    between atoms: _298  and  _299
REMARK  124  A    between atoms: _302  and  _304
REMARK  125  A    between atoms: _304  and  _305
REMARK  126  A    between atoms: _304  and  _307
REMARK  127  A    between atoms: _307  and  _308
REMARK  128  A    between atoms: _313  and  _314
REMARK  129  A    between atoms: _316  and  _318
REMARK  130  A    between atoms: _318  and  _319
REMARK  131  A    between atoms: _318  and  _321
REMARK  132  A    between atoms: _321  and  _322
REMARK  133  A    between atoms: _327  and  _328
REMARK  134  A    between atoms: _330  and  _332
REMARK  135  A    between atoms: _332  and  _333
REMARK  136  A    between atoms: _332  and  _335
REMARK  137  A    between atoms: _335  and  _336
REMARK  138  A    between atoms: _336  and  _337
REMARK  139  A    between atoms: _342  and  _344
REMARK  140  A    between atoms: _344  and  _345
REMARK  141  A    between atoms: _344  and  _347
REMARK  142  A    between atoms: _350  and  _352
REMARK  143  A    between atoms: _352  and  _353
REMARK  144  A    between atoms: _352  and  _355
REMARK  145  A    between atoms: _358  and  _360
REMARK  146  A    between atoms: _360  and  _361
REMARK  147  A    between atoms: _360  and  _363
REMARK  148  A    between atoms: _363  and  _364
REMARK  149  A    between atoms: _364  and  _365
REMARK  150  A    between atoms: _365  and  _366
REMARK  151  A    between atoms: _375  and  _377
REMARK  152  A    between atoms: _377  and  _378
REMARK  153  A    between atoms: _381  and  _383
REMARK  154  A    between atoms: _383  and  _384
REMARK  155  A    between atoms: _383  and  _386
REMARK  156  A    between atoms: _386  and  _387
REMARK  157  A    between atoms: _389  and  _391
REMARK  158  A    between atoms: _391  and  _392
REMARK  159  A    between atoms: _391  and  _394
REMARK  160  A    between atoms: _394  and  _395
REMARK  161  A    between atoms: _400  and  _402
REMARK  162  A    between atoms: _402  and  _403
REMARK  163  A    between atoms: _402  and  _405
REMARK  164  A    between atoms: _405  and  _406
REMARK  165  A    between atoms: _416  and  _418
REMARK  166  A    between atoms: _418  and  _419
REMARK  167  A    between atoms: _418  and  _421
REMARK  168  A    between atoms: _421  and  _422
REMARK  169  A    between atoms: _425  and  _427
REMARK  170  A    between atoms: _427  and  _428
REMARK  171  A    between atoms: _427  and  _430
REMARK  172  A    between atoms: _430  and  _431
REMARK  173  A    between atoms: _436  and  _437
REMARK  174  A    between atoms: _439  and  _441
REMARK  175  A    between atoms: _441  and  _442
REMARK  176  A    between atoms: _444  and  _446
REMARK  177  A    between atoms: _446  and  _447
REMARK  178  A    between atoms: _446  and  _449
REMARK  179  A    between atoms: _449  and  _450
REMARK  180  A    between atoms: _460  and  _462
REMARK  181  A    between atoms: _462  and  _463
REMARK  182  A    between atoms: _462  and  _465
REMARK  183  A    between atoms: _465  and  _466
REMARK  184  A    between atoms: _468  and  _470
REMARK  185  A    between atoms: _470  and  _471
REMARK  186  A    between atoms: _473  and  _475
REMARK  187  A    between atoms: _475  and  _476
REMARK  188  A    between atoms: _475  and  _478
REMARK  189  A    between atoms: _478  and  _479
REMARK  190  A    between atoms: _482  and  _484
REMARK  191  A    between atoms: _484  and  _485
REMARK  192  A    between atoms: _484  and  _487
REMARK  193  A    between atoms: _487  and  _488
REMARK  194  A    between atoms: _493  and  _495
REMARK  195  A    between atoms: _495  and  _496
REMARK  196  A    between atoms: _495  and  _498
REMARK  197  A    between atoms: _498  and  _499
REMARK  198  A    between atoms: _504  and  _506
REMARK  199  A    between atoms: _506  and  _507
REMARK  200  A    between atoms: _506  and  _509
REMARK  201  A    between atoms: _509  and  _510
REMARK  202  A    between atoms: _517  and  _518
REMARK  203  A    between atoms: _523  and  _525
REMARK  204  A    between atoms: _525  and  _526
REMARK  205  A    between atoms: _525  and  _528
REMARK  206  A    between atoms: _528  and  _529
REMARK  207  A    between atoms: _532  and  _534
REMARK  208  A    between atoms: _534  and  _535
REMARK  209  A    between atoms: _534  and  _537
REMARK  210  A    between atoms: _537  and  _538
REMARK  211  A    between atoms: _540  and  _542
REMARK  212  A    between atoms: _542  and  _543
REMARK  213  A    between atoms: _542  and  _545
REMARK  214  A    between atoms: _545  and  _546
REMARK  215  A    between atoms: _551  and  _552
REMARK  216  A    between atoms: _554  and  _556
REMARK  217  A    between atoms: _556  and  _557
REMARK  218  A    between atoms: _556  and  _559
REMARK  219  A    between atoms: _559  and  _560
REMARK  220  A    between atoms: _562  and  _564
REMARK  221  A    between atoms: _564  and  _565
REMARK  222  A    between atoms: _564  and  _567
REMARK  223  A    between atoms: _567  and  _568
REMARK  224  A    between atoms: _571  and  _573
REMARK  225  A    between atoms: _573  and  _574
REMARK  226  A    between atoms: _573  and  _576
REMARK  227  A    between atoms: _576  and  _577
REMARK  228  A    between atoms: _582  and  _584
REMARK  229  A    between atoms: _584  and  _585
REMARK  230  A    between atoms: _584  and  _587
REMARK  231  A    between atoms: _587  and  _588
REMARK  232  A    between atoms: _594  and  _596
REMARK  233  A    between atoms: _596  and  _597
REMARK  234  A    between atoms: _601  and  _602
REMARK  235  A    between atoms: _607  and  _609
REMARK  236  A    between atoms: _609  and  _610
REMARK  237  A    between atoms: _609  and  _612
REMARK  238  A    between atoms: _612  and  _613
REMARK  239  A    between atoms: _618  and  _619
REMARK  240  A    between atoms: _621  and  _623
REMARK  241  A    between atoms: _623  and  _624
REMARK  242  A    between atoms: _623  and  _626
REMARK  243  A    between atoms: _626  and  _627
REMARK  244  A    between atoms: _627  and  _628
REMARK  245  A    between atoms: _628  and  _629
REMARK  246  A    between atoms: _629  and  _630
REMARK  247  A    between atoms: _634  and  _636
REMARK  248  A    between atoms: _636  and  _637
REMARK  249  A    between atoms: _636  and  _639
REMARK  250  A    between atoms: _639  and  _640
REMARK  251  A    between atoms: _640  and  _641
REMARK  252  A    between atoms: _646  and  _648
REMARK  253  A    between atoms: _648  and  _649
REMARK  254  A    between atoms: _648  and  _651
REMARK  255  A    between atoms: _651  and  _652
REMARK  256  A    between atoms: _655  and  _656
REMARK  257  A    between atoms: _661  and  _663
REMARK  258  A    between atoms: _663  and  _664
REMARK  259  A    between atoms: _663  and  _666
REMARK  260  A    between atoms: _666  and  _667
REMARK  261  A    between atoms: _673  and  _675
REMARK  262  A    between atoms: _675  and  _676
REMARK  263  A    between atoms: _678  and  _680
REMARK  264  A    between atoms: _680  and  _681
REMARK  265  A    between atoms: _680  and  _683
REMARK  266  A    between atoms: _683  and  _684
REMARK  267  A    between atoms: _689  and  _690
REMARK  268  A    between atoms: _692  and  _694
REMARK  269  A    between atoms: _694  and  _695
REMARK  270  A    between atoms: _694  and  _697
REMARK  271  A    between atoms: _697  and  _698
REMARK  272  A    between atoms: _701  and  _703
REMARK  273  A    between atoms: _703  and  _704
REMARK  274  A    between atoms: _703  and  _706
REMARK  275  A    between atoms: _706  and  _707
REMARK  276  A    between atoms: _712  and  _713
REMARK                            x       y       z     vdW  Elec       q    Type
REMARK                         _______ _______ _______ _____ _____    ______ ____
ROOT
ATOM      1  C   ILE A   5      21.485 -13.544 -17.510  0.00  0.00    +0.241 C 
ATOM      2  N   SER A   6      22.027 -14.651 -18.002  0.00  0.00    -0.295 N 
ATOM      3  H   SER A   6      22.025 -15.518 -17.427  0.00  0.00    +0.150 HD
ATOM      4  O   ILE A   5      21.489 -12.462 -18.114  0.00  0.00    -0.273 OA
ENDROOT
BRANCH   2   5
ATOM      5  CA  SER A   6      22.627 -14.677 -19.335  0.00  0.00    +0.178 C 
BRANCH   5   6
ATOM      6  C   SER A   6      21.575 -14.383 -20.413  0.00  0.00    +0.243 C 
ATOM      7  N   TYR A   7      20.422 -15.041 -20.349  0.00  0.00    -0.297 N 
ATOM      8  H   TYR A   7      20.252 -15.725 -19.584  0.00  0.00    +0.150 HD
ATOM      9  O   SER A   6      21.801 -13.565 -21.298  0.00  0.00    -0.273 OA
BRANCH   7  10
ATOM     10  CA  TYR A   7      19.395 -14.798 -21.358  0.00  0.00    +0.153 C 
BRANCH  10  11
ATOM     11  C   TYR A   7      18.945 -13.335 -21.342  0.00  0.00    +0.241 C 
ATOM     12  N   ASN A   8      18.656 -12.820 -20.147  0.00  0.00    -0.297 N 
ATOM     13  H   ASN A   8      18.725 -13.419 -19.300  0.00  0.00    +0.150 HD
ATOM     14  O   TYR A   7      18.852 -12.691 -22.390  0.00  0.00    -0.273 OA
BRANCH  12  15
ATOM     15  CA  ASN A   8      18.246 -11.431 -20.012  0.00  0.00    +0.158 C 
BRANCH  15  16
ATOM     16  C   ASN A   8      19.261 -10.493 -20.673  0.00  0.00    +0.241 C 
ATOM     17  N   ALA A   9      20.552 -10.803 -20.532  0.00  0.00    -0.298 N 
ATOM     18  H   ALA A   9      20.814 -11.697 -20.071  0.00  0.00    +0.150 HD
ATOM     19  O   ASN A   8      18.879  -9.507 -21.294  0.00  0.00    -0.273 OA
BRANCH  17  20
ATOM     20  CA  ALA A   9      21.606  -9.907 -21.015  0.00  0.00    +0.137 C 
ATOM     21  CB  ALA A   9      22.875 -10.090 -20.183  0.00  0.00    +0.030 C 
BRANCH  20  22
ATOM     22  C   ALA A   9      21.929 -10.114 -22.492  0.00  0.00    +0.227 C 
ATOM     23  O   ALA A   9      22.770  -9.405 -23.053  0.00  0.00    -0.286 OA
ENDBRANCH  20  22
ENDBRANCH  17  20
ENDBRANCH  15  16
BRANCH  15  24
ATOM     24  CB  ASN A   8      18.093 -11.054 -18.534  0.00  0.00    +0.114 C 
BRANCH  24  25
ATOM     25  CG  ASN A   8      16.700 -11.362 -17.982  0.00  0.00    +0.222 C 
ATOM     26  ND2 ASN A   8      16.565 -11.285 -16.658  0.00  0.00    -0.329 N 
ATOM     27 HD21 ASN A   8      17.390 -11.067 -16.063  0.00  0.00    +0.145 HD
ATOM     28 HD22 ASN A   8      15.635 -11.442 -16.220  0.00  0.00    +0.145 HD
ATOM     29  OD1 ASN A   8      15.754 -11.617 -18.734  0.00  0.00    -0.275 OA
ENDBRANCH  24  25
ENDBRANCH  15  24
ENDBRANCH  12  15
ENDBRANCH  10  11
BRANCH  10  30
ATOM     30  CB  TYR A   7      18.191 -15.709 -21.135  0.00  0.00    +0.055 C 
BRANCH  30  31
ATOM     31  CG  TYR A   7      18.430 -17.155 -21.510  0.00  0.00    -0.020 A 
ATOM     32  CD2 TYR A   7      17.579 -18.150 -21.047  0.00  0.00    -0.001 A 
ATOM     33  CE2 TYR A   7      17.775 -19.480 -21.380  0.00  0.00    +0.036 A 
ATOM     34  CZ  TYR A   7      18.838 -19.834 -22.195  0.00  0.00    +0.134 A 
ATOM     35  CE1 TYR A   7      19.699 -18.868 -22.674  0.00  0.00    +0.036 A 
ATOM     36  CD1 TYR A   7      19.494 -17.529 -22.329  0.00  0.00    -0.001 A 
BRANCH  34  37
ATOM     37  OH  TYR A   7      19.016 -21.162 -22.537  0.00  0.00    -0.506 OA
ATOM     38  HH  TYR A   7      19.813 -21.248 -23.119  0.00  0.00    +0.292 HD
ENDBRANCH  34  37
ENDBRANCH  30  31
ENDBRANCH  10  30
ENDBRANCH   7  10
ENDBRANCH   5   6
BRANCH   5  39
ATOM     39  CB  SER A   6      23.291 -16.032 -19.599  0.00  0.00    +0.166 C 
BRANCH  39  40
ATOM     40  OG  SER A   6      24.349 -16.272 -18.681  0.00  0.00    -0.380 OA
ATOM     41  H   SER A   6      23.991 -16.269 -17.758  0.00  0.00    +0.211 HD
ENDBRANCH  39  40
ENDBRANCH   5  39
ENDBRANCH   2   5
BRANCH   1  42
ATOM     42  CA  ILE A   5      20.863 -13.687 -16.130  0.00  0.00    +0.149 C 
BRANCH  42  44
ATOM     43  C   GLY A   4      18.941 -14.989 -16.879  0.00  0.00    +0.243 C 
ATOM     44  N   ILE A   5      20.016 -14.884 -16.110  0.00  0.00    -0.297 N 
ATOM     45  H   ILE A   5      20.265 -15.670 -15.477  0.00  0.00    +0.150 HD
ATOM     46  O   GLY A   4      18.538 -14.052 -17.563  0.00  0.00    -0.273 OA
BRANCH  43  47
ATOM     47  CA  GLY A   4      18.170 -16.297 -16.853  0.00  0.00    +0.176 C 
BRANCH  47  49
ATOM     48  C   ASP A   3      19.774 -18.039 -17.451  0.00  0.00    +0.241 C 
ATOM     49  N   GLY A   4      18.935 -17.504 -16.571  0.00  0.00    -0.295 N 
ATOM     50  H   GLY A   4      18.820 -17.964 -15.646  0.00  0.00    +0.150 HD
ATOM     51  O   ASP A   3      20.075 -17.496 -18.519  0.00  0.00    -0.273 OA
BRANCH  48  52
ATOM     52  CA  ASP A   3      20.361 -19.395 -17.076  0.00  0.00    +0.160 C 
BRANCH  52  55
ATOM     53  C   MET A   2      20.564 -21.414 -18.412  0.00  0.00    +0.241 C 
ATOM     54  O   MET A   2      20.164 -22.115 -17.487  0.00  0.00    -0.273 OA
ATOM     55  N   ASP A   3      20.746 -20.103 -18.293  0.00  0.00    -0.297 N 
ATOM     56  H   ASP A   3      21.170 -19.572 -19.081  0.00  0.00    +0.150 HD
BRANCH  53  57
ATOM     57  CA  MET A   2      20.884 -22.024 -19.773  0.00  0.00    +0.149 C 
BRANCH  57  59
ATOM     58  C   VAL A   1      22.536 -21.549 -21.465  0.00  0.00    +0.238 C 
ATOM     59  N   MET A   2      22.195 -21.603 -20.185  0.00  0.00    -0.297 N 
ATOM     60  H   MET A   2      22.893 -21.334 -19.462  0.00  0.00    +0.150 HD
ATOM     61  O   VAL A   1      21.730 -21.650 -22.380  0.00  0.00    -0.274 OA
BRANCH  58  62
ATOM     62  CA  VAL A   1      24.003 -21.303 -21.736  0.00  0.00    +0.145 C 
BRANCH  62  63
ATOM     63  CB  VAL A   1      24.361 -19.930 -21.132  0.00  0.00    +0.025 C 
ATOM     64  CG2 VAL A   1      25.865 -19.751 -21.076  0.00  0.00    +0.002 C 
ATOM     65  CG1 VAL A   1      23.695 -18.816 -21.924  0.00  0.00    +0.002 C 
ENDBRANCH  62  63
BRANCH  62  66
ATOM     66  N   VAL A   1      24.324 -21.378 -23.164  0.00  0.00    -0.238 NA
ATOM     67  H   VAL A   1      23.732 -20.867 -23.849  0.00  0.00    +0.142 HD
ENDBRANCH  62  66
ENDBRANCH  58  62
ENDBRANCH  57  59
BRANCH  57  68
ATOM     68  CB  MET A   2      20.878 -23.550 -19.705  0.00  0.00    +0.041 C 
BRANCH  68  69
ATOM     69  CG  MET A   2      19.529 -24.175 -19.624  0.00  0.00    +0.060 C 
BRANCH  69  70
ATOM     70  SD  MET A   2      19.677 -25.974 -19.742  0.00  0.00    -0.139 S 
ATOM     71  CE  MET A   2      18.008 -26.450 -19.253  0.00  0.00    +0.069 C 
ENDBRANCH  69  70
ENDBRANCH  68  69
ENDBRANCH  57  68
ENDBRANCH  53  57
ENDBRANCH  52  55
BRANCH  52  72
ATOM     72  CB  ASP A   3      21.552 -19.233 -16.122  0.00  0.00    +0.143 C 
BRANCH  72  73
ATOM     73  CG  ASP A   3      22.511 -18.124 -16.552  0.00  0.00    +0.367 C 
ATOM     74  OD2 ASP A   3      22.335 -16.969 -16.093  0.00  0.00    -0.246 OA
ATOM     75  OD1 ASP A   3      23.448 -18.410 -17.336  0.00  0.00    -0.246 OA
ENDBRANCH  72  73
ENDBRANCH  52  72
ENDBRANCH  48  52
ENDBRANCH  47  49
ENDBRANCH  43  47
ENDBRANCH  42  44
BRANCH  42  76
ATOM     76  CB  ILE A   5      22.010 -13.781 -15.100  0.00  0.00    +0.027 C 
ATOM     77  CG2 ILE A   5      22.903 -12.546 -15.174  0.00  0.00    +0.002 C 
BRANCH  76  78
ATOM     78  CG1 ILE A   5      21.455 -13.957 -13.683  0.00  0.00    +0.002 C 
ATOM     79  CD1 ILE A   5      20.698 -12.750 -13.164  0.00  0.00    +0.000 C 
ENDBRANCH  76  78
ENDBRANCH  42  76
ENDBRANCH   1  42
TORSDOF 33
REMARK  Name = ../refined-set-2016/3m8u/3m8u_pocket.pdb
REMARK  276 active torsions:
REMARK  status: ('A' for Active; 'I' for Inactive)
REMARK    1  A    between atoms: _1  and  _3
REMARK    2  A    between atoms: _3  and  _4
REMARK    3  A    between atoms: _3  and  _6
REMARK    4  A    between atoms: _6  and  _7
REMARK    5  A    between atoms: _12  and  _14
REMARK    6  A    between atoms: _14  and  _15
REMARK    7  A    between atoms: _14  and  _17
REMARK    8  A    between atoms: _20  and  _22
REMARK    9  A    between atoms: _22  and  _23
REMARK   10  A    between atoms: _22  and  _25
REMARK   11  A    between atoms: _25  and  _26
REMARK   12  A    between atoms: _28  and  _30
REMARK   13  A    between atoms: _30  and  _31
REMARK   14  A    between atoms: _30  and  _33
REMARK   15  A    between atoms: _33  and  _34
REMARK   16  A    between atoms: _34  and  _35
REMARK   17  A    between atoms: _35  and  _36
REMARK   18  A    between atoms: _45  and  _47
REMARK   19  A    between atoms: _47  and  _48
REMARK   20  A    between atoms: _47  and  _50
REMARK   21  A    between atoms: _50  and  _51
REMARK   22  A    between atoms: _54  and  _56
REMARK   23  A    between atoms: _56  and  _57
REMARK   24  A    between atoms: _56  and  _59
REMARK   25  A    between atoms: _62  and  _64
REMARK   26  A    between atoms: _64  and  _65
REMARK   27  A    between atoms: _64  and  _67
REMARK   28  A    between atoms: _67  and  _68
REMARK   29  A    between atoms: _68  and  _69
REMARK   30  A    between atoms: _71  and  _73
REMARK   31  A    between atoms: _73  and  _74
REMARK   32  A    between atoms: _73  and  _76
REMARK   33  A    between atoms: _76  and  _77
REMARK   34  A    between atoms: _80  and  _82
REMARK   35  A    between atoms: _82  and  _83
REMARK   36  A    between atoms: _85  and  _87
REMARK   37  A    between atoms: _87  and  _88
REMARK   38  A    between atoms: _87  and  _90
REMARK   39  A    between atoms: _90  and  _91
REMARK   40  A    between atoms: _94  and  _96
REMARK   41  A    between atoms: _96  and  _97
REMARK   42  A    between atoms: _96  and  _99
REMARK   43  A    between atoms: _99  and  _100
REMARK   44  A    between atoms: _102  and  _104
REMARK   45  A    between atoms: _104  and  _105
REMARK   46  A    between atoms: _104  and  _107
REMARK   47  A    between atoms: _107  and  _108
REMARK   48  A    between atoms: _113  and  _114
REMARK   49  A    between atoms: _116  and  _118
REMARK   50  A    between atoms: _118  and  _119
REMARK   51  A    between atoms: _118  and  _121
REMARK   52  A    between atoms: _121  and  _122
REMARK   53  A    between atoms: _127  and  _129
REMARK   54  A    between atoms: _129  and  _130
REMARK   55  A    between atoms: _133  and  _135
REMARK   56  A    between atoms: _135  and  _136
REMARK   57  A    between atoms: _135  and  _138
REMARK   58  A    between atoms: _138  and  _139
REMARK   59  A    between atoms: _139  and  _140
REMARK   60  A    between atoms: _145  and  _147
REMARK   61  A    between atoms: _147  and  _148
REMARK   62  A    between atoms: _147  and  _150
REMARK   63  A    between atoms: _150  and  _151
REMARK   64  A    between atoms: _156  and  _157
REMARK   65  A    between atoms: _159  and  _161
REMARK   66  A    between atoms: _161  and  _162
REMARK   67  A    between atoms: _161  and  _164
REMARK   68  A    between atoms: _164  and  _165
REMARK   69  A    between atoms: _165  and  _166
REMARK   70  A    between atoms: _168  and  _170
REMARK   71  A    between atoms: _170  and  _171
REMARK   72  A    between atoms: _170  and  _173
REMARK   73  A    between atoms: _173  and  _174
REMARK   74  A    between atoms: _177  and  _179
REMARK   75  A    between atoms: _179  and  _180
REMARK   76  A    between atoms: _179  and  _182
REMARK   77  A    between atoms: _182  and  _183
REMARK   78  A    between atoms: _186  and  _188
REMARK   79  A    between atoms: _188  and  _189
REMARK   80  A    between atoms: _188  and  _191
REMARK   81  A    between atoms: _191  and  _192
REMARK   82  A    between atoms: _195  and  _197
REMARK   83  A    between atoms: _197  and  _198
REMARK   84  A    between atoms: _197  and  _200
REMARK   85  A    between atoms: _200  and  _201
REMARK   86  A    between atoms: _204  and  _206
REMARK   87  A    between atoms: _206  and  _207
REMARK   88  A    between atoms: _206  and  _209
REMARK   89  A    between atoms: _209  and  _210
REMARK   90  A    between atoms: _217  and  _218
REMARK   91  A    between atoms: _223  and  _225
REMARK   92  A    between atoms: _225  and  _226
REMARK   93  A    between atoms: _225  and  _228
REMARK   94  A    between atoms: _228  and  _229
REMARK   95  A    between atoms: _234  and  _236
REMARK   96  A    between atoms: _236  and  _237
REMARK   97  A    between atoms: _236  and  _239
REMARK   98  A    between atoms: _239  and  _240
REMARK   99  A    between atoms: _242  and  _244
REMARK  100  A    between atoms: _244  and  _245
REMARK  101  A    between atoms: _244  and  _247
REMARK  102  A    between atoms: _247  and  _248
REMARK  103  A    between atoms: _248  and  _249
REMARK  104  A    between atoms: _254  and  _256
REMARK  105  A    between atoms: _256  and  _257
REMARK  106  A    between atoms: _256  and  _259
REMARK  107  A    between atoms: _259  and  _260
REMARK  108  A    between atoms: _262  and  _264
REMARK  109  A    between atoms: _264  and  _265
REMARK  110  A    between atoms: _267  and  _269
REMARK  111  A    between atoms: _269  and  _270
REMARK  112  A    between atoms: _269  and  _272
REMARK  113  A    between atoms: _272  and  _273
REMARK  114  A    between atoms: _276  and  _278
REMARK  115  A    between atoms: _278  and  _279
REMARK  116  A    between atoms: _278  and  _281
REMARK  117  A    between atoms: _281  and  _282
REMARK  118  A    between atoms: _287  and  _289
REMARK  119  A    between atoms: _289  and  _290
REMARK  120  A    between atoms: _289  and  _292
REMARK  121  A    between atoms: _292  and  _293
REMARK  122  A    between atoms: _296  and  _298
REMARK  123  A    between atoms: _298  and  _299
REMARK  124  A    between atoms: _302  and  _304
REMARK  125  A    between atoms: _304  and  _305
REMARK  126  A    between atoms: _304  and  _307
REMARK  127  A    between atoms: _307  and  _308
REMARK  128  A    between atoms: _313  and  _314
REMARK  129  A    between atoms: _316  and  _318
REMARK  130  A    between atoms: _318  and  _319
REMARK  131  A    between atoms: _318  and  _321
REMARK  132  A    between atoms: _321  and  _322
REMARK  133  A    between atoms: _327  and  _328
REMARK  134  A    between atoms: _330  and  _332
REMARK  135  A    between atoms: _332  and  _333
REMARK  136  A    between atoms: _332  and  _335
REMARK  137  A    between atoms: _335  and  _336
REMARK  138  A    between atoms: _336  and  _337
REMARK  139  A    between atoms: _342  and  _344
REMARK  140  A    between atoms: _344  and  _345
REMARK  141  A    between atoms: _344  and  _347
REMARK  142  A    between atoms: _350  and  _352
REMARK  143  A    between atoms: _352  and  _353
REMARK  144  A    between atoms: _352  and  _355
REMARK  145  A    between atoms: _358  and  _360
REMARK  146  A    between atoms: _360  and  _361
REMARK  147  A    between atoms: _360  and  _363
REMARK  148  A    between atoms: _363  and  _364
REMARK  149  A    between atoms: _364  and  _365
REMARK  150  A    between atoms: _365  and  _366
REMARK  151  A    between atoms: _375  and  _377
REMARK  152  A    between atoms: _377  and  _378
REMARK  153  A    between atoms: _381  and  _383
REMARK  154  A    between atoms: _383  and  _384
REMARK  155  A    between atoms: _383  and  _386
REMARK  156  A    between atoms: _386  and  _387
REMARK  157  A    between atoms: _389  and  _391
REMARK  158  A    between atoms: _391  and  _392
REMARK  159  A    between atoms: _391  and  _394
REMARK  160  A    between atoms: _394  and  _395
REMARK  161  A    between atoms: _400  and  _402
REMARK  162  A    between atoms: _402  and  _403
REMARK  163  A    between atoms: _402  and  _405
REMARK  164  A    between atoms: _405  and  _406
REMARK  165  A    between atoms: _416  and  _418
REMARK  166  A    between atoms: _418  and  _419
REMARK  167  A    between atoms: _418  and  _421
REMARK  168  A    between atoms: _421  and  _422
REMARK  169  A    between atoms: _425  and  _427
REMARK  170  A    between atoms: _427  and  _428
REMARK  171  A    between atoms: _427  and  _430
REMARK  172  A    between atoms: _430  and  _431
REMARK  173  A    between atoms: _436  and  _437
REMARK  174  A    between atoms: _439  and  _441
REMARK  175  A    between atoms: _441  and  _442
REMARK  176  A    between atoms: _444  and  _446
REMARK  177  A    between atoms: _446  and  _447
REMARK  178  A    between atoms: _446  and  _449
REMARK  179  A    between atoms: _449  and  _450
REMARK  180  A    between atoms: _460  and  _462
REMARK  181  A    between atoms: _462  and  _463
REMARK  182  A    between atoms: _462  and  _465
REMARK  183  A    between atoms: _465  and  _466
REMARK  184  A    between atoms: _468  and  _470
REMARK  185  A    between atoms: _470  and  _471
REMARK  186  A    between atoms: _473  and  _475
REMARK  187  A    between atoms: _475  and  _476
REMARK  188  A    between atoms: _475  and  _478
REMARK  189  A    between atoms: _478  and  _479
REMARK  190  A    between atoms: _482  and  _484
REMARK  191  A    between atoms: _484  and  _485
REMARK  192  A    between atoms: _484  and  _487
REMARK  193  A    between atoms: _487  and  _488
REMARK  194  A    between atoms: _493  and  _495
REMARK  195  A    between atoms: _495  and  _496
REMARK  196  A    between atoms: _495  and  _498
REMARK  197  A    between atoms: _498  and  _499
REMARK  198  A    between atoms: _504  and  _506
REMARK  199  A    between atoms: _506  and  _507
REMARK  200  A    between atoms: _506  and  _509
REMARK  201  A    between atoms: _509  and  _510
REMARK  202  A    between atoms: _517  and  _518
REMARK  203  A    between atoms: _523  and  _525
REMARK  204  A    between atoms: _525  and  _526
REMARK  205  A    between atoms: _525  and  _528
REMARK  206  A    between atoms: _528  and  _529
REMARK  207  A    between atoms: _532  and  _534
REMARK  208  A    between atoms: _534  and  _535
REMARK  209  A    between atoms: _534  and  _537
REMARK  210  A    between atoms: _537  and  _538
REMARK  211  A    between atoms: _540  and  _542
REMARK  212  A    between atoms: _542  and  _543
REMARK  213  A    between atoms: _542  and  _545
REMARK  214  A    between atoms: _545  and  _546
REMARK  215  A    between atoms: _551  and  _552
REMARK  216  A    between atoms: _554  and  _556
REMARK  217  A    between atoms: _556  and  _557
REMARK  218  A    between atoms: _556  and  _559
REMARK  219  A    between atoms: _559  and  _560
REMARK  220  A    between atoms: _562  and  _564
REMARK  221  A    between atoms: _564  and  _565
REMARK  222  A    between atoms: _564  and  _567
REMARK  223  A    between atoms: _567  and  _568
REMARK  224  A    between atoms: _571  and  _573
REMARK  225  A    between atoms: _573  and  _574
REMARK  226  A    between atoms: _573  and  _576
REMARK  227  A    between atoms: _576  and  _577
REMARK  228  A    between atoms: _582  and  _584
REMARK  229  A    between atoms: _584  and  _585
REMARK  230  A    between atoms: _584  and  _587
REMARK  231  A    between atoms: _587  and  _588
REMARK  232  A    between atoms: _594  and  _596
REMARK  233  A    between atoms: _596  and  _597
REMARK  234  A    between atoms: _601  and  _602
REMARK  235  A    between atoms: _607  and  _609
REMARK  236  A    between atoms: _609  and  _610
REMARK  237  A    between atoms: _609  and  _612
REMARK  238  A    between atoms: _612  and  _613
REMARK  239  A    between atoms: _618  and  _619
REMARK  240  A    between atoms: _621  and  _623
REMARK  241  A    between atoms: _623  and  _624
REMARK  242  A    between atoms: _623  and  _626
REMARK  243  A    between atoms: _626  and  _627
REMARK  244  A    between atoms: _627  and  _628
REMARK  245  A    between atoms: _628  and  _629
REMARK  246  A    between atoms: _629  and  _630
REMARK  247  A    between atoms: _634  and  _636
REMARK  248  A    between atoms: _636  and  _637
REMARK  249  A    between atoms: _636  and  _639
REMARK  250  A    between atoms: _639  and  _640
REMARK  251  A    between atoms: _640  and  _641
REMARK  252  A    between atoms: _646  and  _648
REMARK  253  A    between atoms: _648  and  _649
REMARK  254  A    between atoms: _648  and  _651
REMARK  255  A    between atoms: _651  and  _652
REMARK  256  A    between atoms: _655  and  _656
REMARK  257  A    between atoms: _661  and  _663
REMARK  258  A    between atoms: _663  and  _664
REMARK  259  A    between atoms: _663  and  _666
REMARK  260  A    between atoms: _666  and  _667
REMARK  261  A    between atoms: _673  and  _675
REMARK  262  A    between atoms: _675  and  _676
REMARK  263  A    between atoms: _678  and  _680
REMARK  264  A    between atoms: _680  and  _681
REMARK  265  A    between atoms: _680  and  _683
REMARK  266  A    between atoms: _683  and  _684
REMARK  267  A    between atoms: _689  and  _690
REMARK  268  A    between atoms: _692  and  _694
REMARK  269  A    between atoms: _694  and  _695
REMARK  270  A    between atoms: _694  and  _697
REMARK  271  A    between atoms: _697  and  _698
REMARK  272  A    between atoms: _701  and  _703
REMARK  273  A    between atoms: _703  and  _704
REMARK  274  A    between atoms: _703  and  _706
REMARK  275  A    between atoms: _706  and  _707
REMARK  276  A    between atoms: _712  and  _713
REMARK                            x       y       z     vdW  Elec       q    Type
REMARK                         _______ _______ _______ _____ _____    ______ ____
ROOT
ATOM      1  CB  GLN A   1      15.726 -11.076 -22.965  0.00  0.00    +0.035 C 
ENDROOT
BRANCH   1   2
ATOM      2  CA  GLN A   1      15.952 -11.194 -24.479  0.00  0.00    +0.134 C 
BRANCH   2   3
ATOM      3  N   GLN A   1      17.171 -11.949 -24.769  0.00  0.00    -0.239 NA
ATOM      4  H   GLN A   1      17.853 -12.144 -24.008  0.00  0.00    +0.142 HD
ENDBRANCH   2   3
BRANCH   2   5
ATOM      5  C   GLN A   1      16.002  -9.801 -25.111  0.00  0.00    +0.224 C 
ATOM      6  O   GLN A   1      14.959  -9.202 -25.398  0.00  0.00    -0.287 OA
ENDBRANCH   2   5
ENDBRANCH   1   2
BRANCH   1   7
ATOM      7  CG  GLN A   1      15.193 -12.369 -22.327  0.00  0.00    +0.087 C 
BRANCH   7   8
ATOM      8  CD  GLN A   1      13.819 -12.764 -22.880  0.00  0.00    +0.219 C 
ATOM      9  OE1 GLN A   1      12.878 -11.968 -22.873  0.00  0.00    -0.275 OA
ATOM     10  NE2 GLN A   1      13.712 -13.995 -23.375  0.00  0.00    -0.329 N 
ATOM     11 HE21 GLN A   1      14.532 -14.634 -23.361  0.00  0.00    +0.145 HD
ATOM     12 HE22 GLN A   1      12.808 -14.317 -23.776  0.00  0.00    +0.145 HD
ENDBRANCH   7   8
ENDBRANCH   1   7
TORSDOF 5
REMARK  Name = ../refined-set-2016/3m8u/3m8u_pocket.pdb
REMARK  276 active torsions:
REMARK  status: ('A' for Active; 'I' for Inactive)
REMARK    1  A    between atoms: _1  and  _3
REMARK    2  A    between atoms: _3  and  _4
REMARK    3  A    between atoms: _3  and  _6
REMARK    4  A    between atoms: _6  and  _7
REMARK    5  A    between atoms: _12  and  _14
REMARK    6  A    between atoms: _14  and  _15
REMARK    7  A    between atoms: _14  and  _17
REMARK    8  A    between atoms: _20  and  _22
REMARK    9  A    between atoms: _22  and  _23
REMARK   10  A    between atoms: _22  and  _25
REMARK   11  A    between atoms: _25  and  _26
REMARK   12  A    between atoms: _28  and  _30
REMARK   13  A    between atoms: _30  and  _31
REMARK   14  A    between atoms: _30  and  _33
REMARK   15  A    between atoms: _33  and  _34
REMARK   16  A    between atoms: _34  and  _35
REMARK   17  A    between atoms: _35  and  _36
REMARK   18  A    between atoms: _45  and  _47
REMARK   19  A    between atoms: _47  and  _48
REMARK   20  A    between atoms: _47  and  _50
REMARK   21  A    between atoms: _50  and  _51
REMARK   22  A    between atoms: _54  and  _56
REMARK   23  A    between atoms: _56  and  _57
REMARK   24  A    between atoms: _56  and  _59
REMARK   25  A    between atoms: _62  and  _64
REMARK   26  A    between atoms: _64  and  _65
REMARK   27  A    between atoms: _64  and  _67
REMARK   28  A    between atoms: _67  and  _68
REMARK   29  A    between atoms: _68  and  _69
REMARK   30  A    between atoms: _71  and  _73
REMARK   31  A    between atoms: _73  and  _74
REMARK   32  A    between atoms: _73  and  _76
REMARK   33  A    between atoms: _76  and  _77
REMARK   34  A    between atoms: _80  and  _82
REMARK   35  A    between atoms: _82  and  _83
REMARK   36  A    between atoms: _85  and  _87
REMARK   37  A    between atoms: _87  and  _88
REMARK   38  A    between atoms: _87  and  _90
REMARK   39  A    between atoms: _90  and  _91
REMARK   40  A    between atoms: _94  and  _96
REMARK   41  A    between atoms: _96  and  _97
REMARK   42  A    between atoms: _96  and  _99
REMARK   43  A    between atoms: _99  and  _100
REMARK   44  A    between atoms: _102  and  _104
REMARK   45  A    between atoms: _104  and  _105
REMARK   46  A    between atoms: _104  and  _107
REMARK   47  A    between atoms: _107  and  _108
REMARK   48  A    between atoms: _113  and  _114
REMARK   49  A    between atoms: _116  and  _118
REMARK   50  A    between atoms: _118  and  _119
REMARK   51  A    between atoms: _118  and  _121
REMARK   52  A    between atoms: _121  and  _122
REMARK   53  A    between atoms: _127  and  _129
REMARK   54  A    between atoms: _129  and  _130
REMARK   55  A    between atoms: _133  and  _135
REMARK   56  A    between atoms: _135  and  _136
REMARK   57  A    between atoms: _135  and  _138
REMARK   58  A    between atoms: _138  and  _139
REMARK   59  A    between atoms: _139  and  _140
REMARK   60  A    between atoms: _145  and  _147
REMARK   61  A    between atoms: _147  and  _148
REMARK   62  A    between atoms: _147  and  _150
REMARK   63  A    between atoms: _150  and  _151
REMARK   64  A    between atoms: _156  and  _157
REMARK   65  A    between atoms: _159  and  _161
REMARK   66  A    between atoms: _161  and  _162
REMARK   67  A    between atoms: _161  and  _164
REMARK   68  A    between atoms: _164  and  _165
REMARK   69  A    between atoms: _165  and  _166
REMARK   70  A    between atoms: _168  and  _170
REMARK   71  A    between atoms: _170  and  _171
REMARK   72  A    between atoms: _170  and  _173
REMARK   73  A    between atoms: _173  and  _174
REMARK   74  A    between atoms: _177  and  _179
REMARK   75  A    between atoms: _179  and  _180
REMARK   76  A    between atoms: _179  and  _182
REMARK   77  A    between atoms: _182  and  _183
REMARK   78  A    between atoms: _186  and  _188
REMARK   79  A    between atoms: _188  and  _189
REMARK   80  A    between atoms: _188  and  _191
REMARK   81  A    between atoms: _191  and  _192
REMARK   82  A    between atoms: _195  and  _197
REMARK   83  A    between atoms: _197  and  _198
REMARK   84  A    between atoms: _197  and  _200
REMARK   85  A    between atoms: _200  and  _201
REMARK   86  A    between atoms: _204  and  _206
REMARK   87  A    between atoms: _206  and  _207
REMARK   88  A    between atoms: _206  and  _209
REMARK   89  A    between atoms: _209  and  _210
REMARK   90  A    between atoms: _217  and  _218
REMARK   91  A    between atoms: _223  and  _225
REMARK   92  A    between atoms: _225  and  _226
REMARK   93  A    between atoms: _225  and  _228
REMARK   94  A    between atoms: _228  and  _229
REMARK   95  A    between atoms: _234  and  _236
REMARK   96  A    between atoms: _236  and  _237
REMARK   97  A    between atoms: _236  and  _239
REMARK   98  A    between atoms: _239  and  _240
REMARK   99  A    between atoms: _242  and  _244
REMARK  100  A    between atoms: _244  and  _245
REMARK  101  A    between atoms: _244  and  _247
REMARK  102  A    between atoms: _247  and  _248
REMARK  103  A    between atoms: _248  and  _249
REMARK  104  A    between atoms: _254  and  _256
REMARK  105  A    between atoms: _256  and  _257
REMARK  106  A    between atoms: _256  and  _259
REMARK  107  A    between atoms: _259  and  _260
REMARK  108  A    between atoms: _262  and  _264
REMARK  109  A    between atoms: _264  and  _265
REMARK  110  A    between atoms: _267  and  _269
REMARK  111  A    between atoms: _269  and  _270
REMARK  112  A    between atoms: _269  and  _272
REMARK  113  A    between atoms: _272  and  _273
REMARK  114  A    between atoms: _276  and  _278
REMARK  115  A    between atoms: _278  and  _279
REMARK  116  A    between atoms: _278  and  _281
REMARK  117  A    between atoms: _281  and  _282
REMARK  118  A    between atoms: _287  and  _289
REMARK  119  A    between atoms: _289  and  _290
REMARK  120  A    between atoms: _289  and  _292
REMARK  121  A    between atoms: _292  and  _293
REMARK  122  A    between atoms: _296  and  _298
REMARK  123  A    between atoms: _298  and  _299
REMARK  124  A    between atoms: _302  and  _304
REMARK  125  A    between atoms: _304  and  _305
REMARK  126  A    between atoms: _304  and  _307
REMARK  127  A    between atoms: _307  and  _308
REMARK  128  A    between atoms: _313  and  _314
REMARK  129  A    between atoms: _316  and  _318
REMARK  130  A    between atoms: _318  and  _319
REMARK  131  A    between atoms: _318  and  _321
REMARK  132  A    between atoms: _321  and  _322
REMARK  133  A    between atoms: _327  and  _328
REMARK  134  A    between atoms: _330  and  _332
REMARK  135  A    between atoms: _332  and  _333
REMARK  136  A    between atoms: _332  and  _335
REMARK  137  A    between atoms: _335  and  _336
REMARK  138  A    between atoms: _336  and  _337
REMARK  139  A    between atoms: _342  and  _344
REMARK  140  A    between atoms: _344  and  _345
REMARK  141  A    between atoms: _344  and  _347
REMARK  142  A    between atoms: _350  and  _352
REMARK  143  A    between atoms: _352  and  _353
REMARK  144  A    between atoms: _352  and  _355
REMARK  145  A    between atoms: _358  and  _360
REMARK  146  A    between atoms: _360  and  _361
REMARK  147  A    between atoms: _360  and  _363
REMARK  148  A    between atoms: _363  and  _364
REMARK  149  A    between atoms: _364  and  _365
REMARK  150  A    between atoms: _365  and  _366
REMARK  151  A    between atoms: _375  and  _377
REMARK  152  A    between atoms: _377  and  _378
REMARK  153  A    between atoms: _381  and  _383
REMARK  154  A    between atoms: _383  and  _384
REMARK  155  A    between atoms: _383  and  _386
REMARK  156  A    between atoms: _386  and  _387
REMARK  157  A    between atoms: _389  and  _391
REMARK  158  A    between atoms: _391  and  _392
REMARK  159  A    between atoms: _391  and  _394
REMARK  160  A    between atoms: _394  and  _395
REMARK  161  A    between atoms: _400  and  _402
REMARK  162  A    between atoms: _402  and  _403
REMARK  163  A    between atoms: _402  and  _405
REMARK  164  A    between atoms: _405  and  _406
REMARK  165  A    between atoms: _416  and  _418
REMARK  166  A    between atoms: _418  and  _419
REMARK  167  A    between atoms: _418  and  _421
REMARK  168  A    between atoms: _421  and  _422
REMARK  169  A    between atoms: _425  and  _427
REMARK  170  A    between atoms: _427  and  _428
REMARK  171  A    between atoms: _427  and  _430
REMARK  172  A    between atoms: _430  and  _431
REMARK  173  A    between atoms: _436  and  _437
REMARK  174  A    between atoms: _439  and  _441
REMARK  175  A    between atoms: _441  and  _442
REMARK  176  A    between atoms: _444  and  _446
REMARK  177  A    between atoms: _446  and  _447
REMARK  178  A    between atoms: _446  and  _449
REMARK  179  A    between atoms: _449  and  _450
REMARK  180  A    between atoms: _460  and  _462
REMARK  181  A    between atoms: _462  and  _463
REMARK  182  A    between atoms: _462  and  _465
REMARK  183  A    between atoms: _465  and  _466
REMARK  184  A    between atoms: _468  and  _470
REMARK  185  A    between atoms: _470  and  _471
REMARK  186  A    between atoms: _473  and  _475
REMARK  187  A    between atoms: _475  and  _476
REMARK  188  A    between atoms: _475  and  _478
REMARK  189  A    between atoms: _478  and  _479
REMARK  190  A    between atoms: _482  and  _484
REMARK  191  A    between atoms: _484  and  _485
REMARK  192  A    between atoms: _484  and  _487
REMARK  193  A    between atoms: _487  and  _488
REMARK  194  A    between atoms: _493  and  _495
REMARK  195  A    between atoms: _495  and  _496
REMARK  196  A    between atoms: _495  and  _498
REMARK  197  A    between atoms: _498  and  _499
REMARK  198  A    between atoms: _504  and  _506
REMARK  199  A    between atoms: _506  and  _507
REMARK  200  A    between atoms: _506  and  _509
REMARK  201  A    between atoms: _509  and  _510
REMARK  202  A    between atoms: _517  and  _518
REMARK  203  A    between atoms: _523  and  _525
REMARK  204  A    between atoms: _525  and  _526
REMARK  205  A    between atoms: _525  and  _528
REMARK  206  A    between atoms: _528  and  _529
REMARK  207  A    between atoms: _532  and  _534
REMARK  208  A    between atoms: _534  and  _535
REMARK  209  A    between atoms: _534  and  _537
REMARK  210  A    between atoms: _537  and  _538
REMARK  211  A    between atoms: _540  and  _542
REMARK  212  A    between atoms: _542  and  _543
REMARK  213  A    between atoms: _542  and  _545
REMARK  214  A    between atoms: _545  and  _546
REMARK  215  A    between atoms: _551  and  _552
REMARK  216  A    between atoms: _554  and  _556
REMARK  217  A    between atoms: _556  and  _557
REMARK  218  A    between atoms: _556  and  _559
REMARK  219  A    between atoms: _559  and  _560
REMARK  220  A    between atoms: _562  and  _564
REMARK  221  A    between atoms: _564  and  _565
REMARK  222  A    between atoms: _564  and  _567
REMARK  223  A    between atoms: _567  and  _568
REMARK  224  A    between atoms: _571  and  _573
REMARK  225  A    between atoms: _573  and  _574
REMARK  226  A    between atoms: _573  and  _576
REMARK  227  A    between atoms: _576  and  _577
REMARK  228  A    between atoms: _582  and  _584
REMARK  229  A    between atoms: _584  and  _585
REMARK  230  A    between atoms: _584  and  _587
REMARK  231  A    between atoms: _587  and  _588
REMARK  232  A    between atoms: _594  and  _596
REMARK  233  A    between atoms: _596  and  _597
REMARK  234  A    between atoms: _601  and  _602
REMARK  235  A    between atoms: _607  and  _609
REMARK  236  A    between atoms: _609  and  _610
REMARK  237  A    between atoms: _609  and  _612
REMARK  238  A    between atoms: _612  and  _613
REMARK  239  A    between atoms: _618  and  _619
REMARK  240  A    between atoms: _621  and  _623
REMARK  241  A    between atoms: _623  and  _624
REMARK  242  A    between atoms: _623  and  _626
REMARK  243  A    between atoms: _626  and  _627
REMARK  244  A    between atoms: _627  and  _628
REMARK  245  A    between atoms: _628  and  _629
REMARK  246  A    between atoms: _629  and  _630
REMARK  247  A    between atoms: _634  and  _636
REMARK  248  A    between atoms: _636  and  _637
REMARK  249  A    between atoms: _636  and  _639
REMARK  250  A    between atoms: _639  and  _640
REMARK  251  A    between atoms: _640  and  _641
REMARK  252  A    between atoms: _646  and  _648
REMARK  253  A    between atoms: _648  and  _649
REMARK  254  A    between atoms: _648  and  _651
REMARK  255  A    between atoms: _651  and  _652
REMARK  256  A    between atoms: _655  and  _656
REMARK  257  A    between atoms: _661  and  _663
REMARK  258  A    between atoms: _663  and  _664
REMARK  259  A    between atoms: _663  and  _666
REMARK  260  A    between atoms: _666  and  _667
REMARK  261  A    between atoms: _673  and  _675
REMARK  262  A    between atoms: _675  and  _676
REMARK  263  A    between atoms: _678  and  _680
REMARK  264  A    between atoms: _680  and  _681
REMARK  265  A    between atoms: _680  and  _683
REMARK  266  A    between atoms: _683  and  _684
REMARK  267  A    between atoms: _689  and  _690
REMARK  268  A    between atoms: _692  and  _694
REMARK  269  A    between atoms: _694  and  _695
REMARK  270  A    between atoms: _694  and  _697
REMARK  271  A    between atoms: _697  and  _698
REMARK  272  A    between atoms: _701  and  _703
REMARK  273  A    between atoms: _703  and  _704
REMARK  274  A    between atoms: _703  and  _706
REMARK  275  A    between atoms: _706  and  _707
REMARK  276  A    between atoms: _712  and  _713
REMARK                            x       y       z     vdW  Elec       q    Type
REMARK                         _______ _______ _______ _____ _____    ______ ____
ROOT
ATOM      1  CG  TYR A   1      17.195 -25.061 -22.646  0.00  0.00    -0.020 A 
ATOM      2  CD2 TYR A   1      16.821 -23.851 -22.071  0.00  0.00    -0.001 A 
ATOM      3  CE2 TYR A   1      15.647 -23.737 -21.330  0.00  0.00    +0.036 A 
ATOM      4  CZ  TYR A   1      14.829 -24.846 -21.159  0.00  0.00    +0.134 A 
ATOM      5  CE1 TYR A   1      15.174 -26.061 -21.713  0.00  0.00    +0.036 A 
ATOM      6  CD1 TYR A   1      16.358 -26.169 -22.457  0.00  0.00    -0.001 A 
ENDROOT
BRANCH   4   7
ATOM      7  OH  TYR A   1      13.662 -24.727 -20.424  0.00  0.00    -0.506 OA
ATOM      8  HH  TYR A   1      13.882 -24.442 -19.502  0.00  0.00    +0.292 HD
ENDBRANCH   4   7
BRANCH   1   9
ATOM      9  CB  TYR A   1      18.478 -25.178 -23.444  0.00  0.00    +0.051 C 
BRANCH   9  10
ATOM     10  CA  TYR A   1      19.071 -26.590 -23.436  0.00  0.00    +0.137 C 
BRANCH  10  11
ATOM     11  N   TYR A   1      20.523 -26.554 -23.314  0.00  0.00    -0.239 NA
ATOM     12  H   TYR A   1      21.054 -25.702 -23.586  0.00  0.00    +0.142 HD
ENDBRANCH  10  11
BRANCH  10  13
ATOM     13  C   TYR A   1      18.643 -27.370 -24.675  0.00  0.00    +0.224 C 
ATOM     14  O   TYR A   1      17.623 -28.038 -24.659  0.00  0.00    -0.287 OA
ENDBRANCH  10  13
ENDBRANCH   9  10
ENDBRANCH   1   9
TORSDOF 5
REMARK  Name = ../refined-set-2016/3m8u/3m8u_pocket.pdb
REMARK  276 active torsions:
REMARK  status: ('A' for Active; 'I' for Inactive)
REMARK    1  A    between atoms: _1  and  _3
REMARK    2  A    between atoms: _3  and  _4
REMARK    3  A    between atoms: _3  and  _6
REMARK    4  A    between atoms: _6  and  _7
REMARK    5  A    between atoms: _12  and  _14
REMARK    6  A    between atoms: _14  and  _15
REMARK    7  A    between atoms: _14  and  _17
REMARK    8  A    between atoms: _20  and  _22
REMARK    9  A    between atoms: _22  and  _23
REMARK   10  A    between atoms: _22  and  _25
REMARK   11  A    between atoms: _25  and  _26
REMARK   12  A    between atoms: _28  and  _30
REMARK   13  A    between atoms: _30  and  _31
REMARK   14  A    between atoms: _30  and  _33
REMARK   15  A    between atoms: _33  and  _34
REMARK   16  A    between atoms: _34  and  _35
REMARK   17  A    between atoms: _35  and  _36
REMARK   18  A    between atoms: _45  and  _47
REMARK   19  A    between atoms: _47  and  _48
REMARK   20  A    between atoms: _47  and  _50
REMARK   21  A    between atoms: _50  and  _51
REMARK   22  A    between atoms: _54  and  _56
REMARK   23  A    between atoms: _56  and  _57
REMARK   24  A    between atoms: _56  and  _59
REMARK   25  A    between atoms: _62  and  _64
REMARK   26  A    between atoms: _64  and  _65
REMARK   27  A    between atoms: _64  and  _67
REMARK   28  A    between atoms: _67  and  _68
REMARK   29  A    between atoms: _68  and  _69
REMARK   30  A    between atoms: _71  and  _73
REMARK   31  A    between atoms: _73  and  _74
REMARK   32  A    between atoms: _73  and  _76
REMARK   33  A    between atoms: _76  and  _77
REMARK   34  A    between atoms: _80  and  _82
REMARK   35  A    between atoms: _82  and  _83
REMARK   36  A    between atoms: _85  and  _87
REMARK   37  A    between atoms: _87  and  _88
REMARK   38  A    between atoms: _87  and  _90
REMARK   39  A    between atoms: _90  and  _91
REMARK   40  A    between atoms: _94  and  _96
REMARK   41  A    between atoms: _96  and  _97
REMARK   42  A    between atoms: _96  and  _99
REMARK   43  A    between atoms: _99  and  _100
REMARK   44  A    between atoms: _102  and  _104
REMARK   45  A    between atoms: _104  and  _105
REMARK   46  A    between atoms: _104  and  _107
REMARK   47  A    between atoms: _107  and  _108
REMARK   48  A    between atoms: _113  and  _114
REMARK   49  A    between atoms: _116  and  _118
REMARK   50  A    between atoms: _118  and  _119
REMARK   51  A    between atoms: _118  and  _121
REMARK   52  A    between atoms: _121  and  _122
REMARK   53  A    between atoms: _127  and  _129
REMARK   54  A    between atoms: _129  and  _130
REMARK   55  A    between atoms: _133  and  _135
REMARK   56  A    between atoms: _135  and  _136
REMARK   57  A    between atoms: _135  and  _138
REMARK   58  A    between atoms: _138  and  _139
REMARK   59  A    between atoms: _139  and  _140
REMARK   60  A    between atoms: _145  and  _147
REMARK   61  A    between atoms: _147  and  _148
REMARK   62  A    between atoms: _147  and  _150
REMARK   63  A    between atoms: _150  and  _151
REMARK   64  A    between atoms: _156  and  _157
REMARK   65  A    between atoms: _159  and  _161
REMARK   66  A    between atoms: _161  and  _162
REMARK   67  A    between atoms: _161  and  _164
REMARK   68  A    between atoms: _164  and  _165
REMARK   69  A    between atoms: _165  and  _166
REMARK   70  A    between atoms: _168  and  _170
REMARK   71  A    between atoms: _170  and  _171
REMARK   72  A    between atoms: _170  and  _173
REMARK   73  A    between atoms: _173  and  _174
REMARK   74  A    between atoms: _177  and  _179
REMARK   75  A    between atoms: _179  and  _180
REMARK   76  A    between atoms: _179  and  _182
REMARK   77  A    between atoms: _182  and  _183
REMARK   78  A    between atoms: _186  and  _188
REMARK   79  A    between atoms: _188  and  _189
REMARK   80  A    between atoms: _188  and  _191
REMARK   81  A    between atoms: _191  and  _192
REMARK   82  A    between atoms: _195  and  _197
REMARK   83  A    between atoms: _197  and  _198
REMARK   84  A    between atoms: _197  and  _200
REMARK   85  A    between atoms: _200  and  _201
REMARK   86  A    between atoms: _204  and  _206
REMARK   87  A    between atoms: _206  and  _207
REMARK   88  A    between atoms: _206  and  _209
REMARK   89  A    between atoms: _209  and  _210
REMARK   90  A    between atoms: _217  and  _218
REMARK   91  A    between atoms: _223  and  _225
REMARK   92  A    between atoms: _225  and  _226
REMARK   93  A    between atoms: _225  and  _228
REMARK   94  A    between atoms: _228  and  _229
REMARK   95  A    between atoms: _234  and  _236
REMARK   96  A    between atoms: _236  and  _237
REMARK   97  A    between atoms: _236  and  _239
REMARK   98  A    between atoms: _239  and  _240
REMARK   99  A    between atoms: _242  and  _244
REMARK  100  A    between atoms: _244  and  _245
REMARK  101  A    between atoms: _244  and  _247
REMARK  102  A    between atoms: _247  and  _248
REMARK  103  A    between atoms: _248  and  _249
REMARK  104  A    between atoms: _254  and  _256
REMARK  105  A    between atoms: _256  and  _257
REMARK  106  A    between atoms: _256  and  _259
REMARK  107  A    between atoms: _259  and  _260
REMARK  108  A    between atoms: _262  and  _264
REMARK  109  A    between atoms: _264  and  _265
REMARK  110  A    between atoms: _267  and  _269
REMARK  111  A    between atoms: _269  and  _270
REMARK  112  A    between atoms: _269  and  _272
REMARK  113  A    between atoms: _272  and  _273
REMARK  114  A    between atoms: _276  and  _278
REMARK  115  A    between atoms: _278  and  _279
REMARK  116  A    between atoms: _278  and  _281
REMARK  117  A    between atoms: _281  and  _282
REMARK  118  A    between atoms: _287  and  _289
REMARK  119  A    between atoms: _289  and  _290
REMARK  120  A    between atoms: _289  and  _292
REMARK  121  A    between atoms: _292  and  _293
REMARK  122  A    between atoms: _296  and  _298
REMARK  123  A    between atoms: _298  and  _299
REMARK  124  A    between atoms: _302  and  _304
REMARK  125  A    between atoms: _304  and  _305
REMARK  126  A    between atoms: _304  and  _307
REMARK  127  A    between atoms: _307  and  _308
REMARK  128  A    between atoms: _313  and  _314
REMARK  129  A    between atoms: _316  and  _318
REMARK  130  A    between atoms: _318  and  _319
REMARK  131  A    between atoms: _318  and  _321
REMARK  132  A    between atoms: _321  and  _322
REMARK  133  A    between atoms: _327  and  _328
REMARK  134  A    between atoms: _330  and  _332
REMARK  135  A    between atoms: _332  and  _333
REMARK  136  A    between atoms: _332  and  _335
REMARK  137  A    between atoms: _335  and  _336
REMARK  138  A    between atoms: _336  and  _337
REMARK  139  A    between atoms: _342  and  _344
REMARK  140  A    between atoms: _344  and  _345
REMARK  141  A    between atoms: _344  and  _347
REMARK  142  A    between atoms: _350  and  _352
REMARK  143  A    between atoms: _352  and  _353
REMARK  144  A    between atoms: _352  and  _355
REMARK  145  A    between atoms: _358  and  _360
REMARK  146  A    between atoms: _360  and  _361
REMARK  147  A    between atoms: _360  and  _363
REMARK  148  A    between atoms: _363  and  _364
REMARK  149  A    between atoms: _364  and  _365
REMARK  150  A    between atoms: _365  and  _366
REMARK  151  A    between atoms: _375  and  _377
REMARK  152  A    between atoms: _377  and  _378
REMARK  153  A    between atoms: _381  and  _383
REMARK  154  A    between atoms: _383  and  _384
REMARK  155  A    between atoms: _383  and  _386
REMARK  156  A    between atoms: _386  and  _387
REMARK  157  A    between atoms: _389  and  _391
REMARK  158  A    between atoms: _391  and  _392
REMARK  159  A    between atoms: _391  and  _394
REMARK  160  A    between atoms: _394  and  _395
REMARK  161  A    between atoms: _400  and  _402
REMARK  162  A    between atoms: _402  and  _403
REMARK  163  A    between atoms: _402  and  _405
REMARK  164  A    between atoms: _405  and  _406
REMARK  165  A    between atoms: _416  and  _418
REMARK  166  A    between atoms: _418  and  _419
REMARK  167  A    between atoms: _418  and  _421
REMARK  168  A    between atoms: _421  and  _422
REMARK  169  A    between atoms: _425  and  _427
REMARK  170  A    between atoms: _427  and  _428
REMARK  171  A    between atoms: _427  and  _430
REMARK  172  A    between atoms: _430  and  _431
REMARK  173  A    between atoms: _436  and  _437
REMARK  174  A    between atoms: _439  and  _441
REMARK  175  A    between atoms: _441  and  _442
REMARK  176  A    between atoms: _444  and  _446
REMARK  177  A    between atoms: _446  and  _447
REMARK  178  A    between atoms: _446  and  _449
REMARK  179  A    between atoms: _449  and  _450
REMARK  180  A    between atoms: _460  and  _462
REMARK  181  A    between atoms: _462  and  _463
REMARK  182  A    between atoms: _462  and  _465
REMARK  183  A    between atoms: _465  and  _466
REMARK  184  A    between atoms: _468  and  _470
REMARK  185  A    between atoms: _470  and  _471
REMARK  186  A    between atoms: _473  and  _475
REMARK  187  A    between atoms: _475  and  _476
REMARK  188  A    between atoms: _475  and  _478
REMARK  189  A    between atoms: _478  and  _479
REMARK  190  A    between atoms: _482  and  _484
REMARK  191  A    between atoms: _484  and  _485
REMARK  192  A    between atoms: _484  and  _487
REMARK  193  A    between atoms: _487  and  _488
REMARK  194  A    between atoms: _493  and  _495
REMARK  195  A    between atoms: _495  and  _496
REMARK  196  A    between atoms: _495  and  _498
REMARK  197  A    between atoms: _498  and  _499
REMARK  198  A    between atoms: _504  and  _506
REMARK  199  A    between atoms: _506  and  _507
REMARK  200  A    between atoms: _506  and  _509
REMARK  201  A    between atoms: _509  and  _510
REMARK  202  A    between atoms: _517  and  _518
REMARK  203  A    between atoms: _523  and  _525
REMARK  204  A    between atoms: _525  and  _526
REMARK  205  A    between atoms: _525  and  _528
REMARK  206  A    between atoms: _528  and  _529
REMARK  207  A    between atoms: _532  and  _534
REMARK  208  A    between atoms: _534  and  _535
REMARK  209  A    between atoms: _534  and  _537
REMARK  210  A    between atoms: _537  and  _538
REMARK  211  A    between atoms: _540  and  _542
REMARK  212  A    between atoms: _542  and  _543
REMARK  213  A    between atoms: _542  and  _545
REMARK  214  A    between atoms: _545  and  _546
REMARK  215  A    between atoms: _551  and  _552
REMARK  216  A    between atoms: _554  and  _556
REMARK  217  A    between atoms: _556  and  _557
REMARK  218  A    between atoms: _556  and  _559
REMARK  219  A    between atoms: _559  and  _560
REMARK  220  A    between atoms: _562  and  _564
REMARK  221  A    between atoms: _564  and  _565
REMARK  222  A    between atoms: _564  and  _567
REMARK  223  A    between atoms: _567  and  _568
REMARK  224  A    between atoms: _571  and  _573
REMARK  225  A    between atoms: _573  and  _574
REMARK  226  A    between atoms: _573  and  _576
REMARK  227  A    between atoms: _576  and  _577
REMARK  228  A    between atoms: _582  and  _584
REMARK  229  A    between atoms: _584  and  _585
REMARK  230  A    between atoms: _584  and  _587
REMARK  231  A    between atoms: _587  and  _588
REMARK  232  A    between atoms: _594  and  _596
REMARK  233  A    between atoms: _596  and  _597
REMARK  234  A    between atoms: _601  and  _602
REMARK  235  A    between atoms: _607  and  _609
REMARK  236  A    between atoms: _609  and  _610
REMARK  237  A    between atoms: _609  and  _612
REMARK  238  A    between atoms: _612  and  _613
REMARK  239  A    between atoms: _618  and  _619
REMARK  240  A    between atoms: _621  and  _623
REMARK  241  A    between atoms: _623  and  _624
REMARK  242  A    between atoms: _623  and  _626
REMARK  243  A    between atoms: _626  and  _627
REMARK  244  A    between atoms: _627  and  _628
REMARK  245  A    between atoms: _628  and  _629
REMARK  246  A    between atoms: _629  and  _630
REMARK  247  A    between atoms: _634  and  _636
REMARK  248  A    between atoms: _636  and  _637
REMARK  249  A    between atoms: _636  and  _639
REMARK  250  A    between atoms: _639  and  _640
REMARK  251  A    between atoms: _640  and  _641
REMARK  252  A    between atoms: _646  and  _648
REMARK  253  A    between atoms: _648  and  _649
REMARK  254  A    between atoms: _648  and  _651
REMARK  255  A    between atoms: _651  and  _652
REMARK  256  A    between atoms: _655  and  _656
REMARK  257  A    between atoms: _661  and  _663
REMARK  258  A    between atoms: _663  and  _664
REMARK  259  A    between atoms: _663  and  _666
REMARK  260  A    between atoms: _666  and  _667
REMARK  261  A    between atoms: _673  and  _675
REMARK  262  A    between atoms: _675  and  _676
REMARK  263  A    between atoms: _678  and  _680
REMARK  264  A    between atoms: _680  and  _681
REMARK  265  A    between atoms: _680  and  _683
REMARK  266  A    between atoms: _683  and  _684
REMARK  267  A    between atoms: _689  and  _690
REMARK  268  A    between atoms: _692  and  _694
REMARK  269  A    between atoms: _694  and  _695
REMARK  270  A    between atoms: _694  and  _697
REMARK  271  A    between atoms: _697  and  _698
REMARK  272  A    between atoms: _701  and  _703
REMARK  273  A    between atoms: _703  and  _704
REMARK  274  A    between atoms: _703  and  _706
REMARK  275  A    between atoms: _706  and  _707
REMARK  276  A    between atoms: _712  and  _713
REMARK                            x       y       z     vdW  Elec       q    Type
REMARK                         _______ _______ _______ _____ _____    ______ ____
ROOT
ATOM      1  C   MET A   1      14.165 -19.661 -26.784  0.00  0.00    +0.238 C 
ATOM      2  N   ASP A   2      14.815 -19.024 -25.814  0.00  0.00    -0.298 N 
ATOM      3  H   ASP A   2      14.410 -19.025 -24.856  0.00  0.00    +0.150 HD
ATOM      4  O   MET A   1      14.619 -19.804 -27.917  0.00  0.00    -0.274 OA
ENDROOT
BRANCH   1   5
ATOM      5  CA  MET A   1      12.792 -20.230 -26.410  0.00  0.00    +0.146 C 
BRANCH   5   6
ATOM      6  N   MET A   1      11.842 -20.205 -27.529  0.00  0.00    -0.238 NA
ATOM      7  H   MET A   1      11.681 -21.070 -28.084  0.00  0.00    +0.142 HD
ENDBRANCH   5   6
BRANCH   5   8
ATOM      8  CB  MET A   1      12.938 -21.660 -25.870  0.00  0.00    +0.038 C 
BRANCH   8   9
ATOM      9  CG  MET A   1      11.656 -22.171 -25.195  0.00  0.00    +0.060 C 
BRANCH   9  10
ATOM     10  SD  MET A   1      11.675 -23.959 -24.885  0.00  0.00    -0.139 S 
ATOM     11  CE  MET A   1      13.026 -24.108 -23.703  0.00  0.00    +0.069 C 
ENDBRANCH   9  10
ENDBRANCH   8   9
ENDBRANCH   5   8
ENDBRANCH   1   5
BRANCH   2  12
ATOM     12  CA  ASP A   2      16.078 -18.322 -26.044  0.00  0.00    +0.148 C 
BRANCH  12  13
ATOM     13  C   ASP A   2      17.165 -19.189 -26.696  0.00  0.00    +0.227 C 
ATOM     14  O   ASP A   2      17.925 -18.695 -27.525  0.00  0.00    -0.286 OA
ENDBRANCH  12  13
BRANCH  12  15
ATOM     15  CB  ASP A   2      16.625 -17.756 -24.731  0.00  0.00    +0.142 C 
BRANCH  15  16
ATOM     16  CG  ASP A   2      15.730 -16.680 -24.139  0.00  0.00    +0.367 C 
ATOM     17  OD2 ASP A   2      14.543 -16.952 -23.896  0.00  0.00    -0.246 OA
ATOM     18  OD1 ASP A   2      16.208 -15.559 -23.918  0.00  0.00    -0.246 OA
ENDBRANCH  15  16
ENDBRANCH  12  15
ENDBRANCH   2  12
TORSDOF 9
REMARK  Name = ../refined-set-2016/3m8u/3m8u_pocket.pdb
REMARK  276 active torsions:
REMARK  status: ('A' for Active; 'I' for Inactive)
REMARK    1  A    between atoms: _1  and  _3
REMARK    2  A    between atoms: _3  and  _4
REMARK    3  A    between atoms: _3  and  _6
REMARK    4  A    between atoms: _6  and  _7
REMARK    5  A    between atoms: _12  and  _14
REMARK    6  A    between atoms: _14  and  _15
REMARK    7  A    between atoms: _14  and  _17
REMARK    8  A    between atoms: _20  and  _22
REMARK    9  A    between atoms: _22  and  _23
REMARK   10  A    between atoms: _22  and  _25
REMARK   11  A    between atoms: _25  and  _26
REMARK   12  A    between atoms: _28  and  _30
REMARK   13  A    between atoms: _30  and  _31
REMARK   14  A    between atoms: _30  and  _33
REMARK   15  A    between atoms: _33  and  _34
REMARK   16  A    between atoms: _34  and  _35
REMARK   17  A    between atoms: _35  and  _36
REMARK   18  A    between atoms: _45  and  _47
REMARK   19  A    between atoms: _47  and  _48
REMARK   20  A    between atoms: _47  and  _50
REMARK   21  A    between atoms: _50  and  _51
REMARK   22  A    between atoms: _54  and  _56
REMARK   23  A    between atoms: _56  and  _57
REMARK   24  A    between atoms: _56  and  _59
REMARK   25  A    between atoms: _62  and  _64
REMARK   26  A    between atoms: _64  and  _65
REMARK   27  A    between atoms: _64  and  _67
REMARK   28  A    between atoms: _67  and  _68
REMARK   29  A    between atoms: _68  and  _69
REMARK   30  A    between atoms: _71  and  _73
REMARK   31  A    between atoms: _73  and  _74
REMARK   32  A    between atoms: _73  and  _76
REMARK   33  A    between atoms: _76  and  _77
REMARK   34  A    between atoms: _80  and  _82
REMARK   35  A    between atoms: _82  and  _83
REMARK   36  A    between atoms: _85  and  _87
REMARK   37  A    between atoms: _87  and  _88
REMARK   38  A    between atoms: _87  and  _90
REMARK   39  A    between atoms: _90  and  _91
REMARK   40  A    between atoms: _94  and  _96
REMARK   41  A    between atoms: _96  and  _97
REMARK   42  A    between atoms: _96  and  _99
REMARK   43  A    between atoms: _99  and  _100
REMARK   44  A    between atoms: _102  and  _104
REMARK   45  A    between atoms: _104  and  _105
REMARK   46  A    between atoms: _104  and  _107
REMARK   47  A    between atoms: _107  and  _108
REMARK   48  A    between atoms: _113  and  _114
REMARK   49  A    between atoms: _116  and  _118
REMARK   50  A    between atoms: _118  and  _119
REMARK   51  A    between atoms: _118  and  _121
REMARK   52  A    between atoms: _121  and  _122
REMARK   53  A    between atoms: _127  and  _129
REMARK   54  A    between atoms: _129  and  _130
REMARK   55  A    between atoms: _133  and  _135
REMARK   56  A    between atoms: _135  and  _136
REMARK   57  A    between atoms: _135  and  _138
REMARK   58  A    between atoms: _138  and  _139
REMARK   59  A    between atoms: _139  and  _140
REMARK   60  A    between atoms: _145  and  _147
REMARK   61  A    between atoms: _147  and  _148
REMARK   62  A    between atoms: _147  and  _150
REMARK   63  A    between atoms: _150  and  _151
REMARK   64  A    between atoms: _156  and  _157
REMARK   65  A    between atoms: _159  and  _161
REMARK   66  A    between atoms: _161  and  _162
REMARK   67  A    between atoms: _161  and  _164
REMARK   68  A    between atoms: _164  and  _165
REMARK   69  A    between atoms: _165  and  _166
REMARK   70  A    between atoms: _168  and  _170
REMARK   71  A    between atoms: _170  and  _171
REMARK   72  A    between atoms: _170  and  _173
REMARK   73  A    between atoms: _173  and  _174
REMARK   74  A    between atoms: _177  and  _179
REMARK   75  A    between atoms: _179  and  _180
REMARK   76  A    between atoms: _179  and  _182
REMARK   77  A    between atoms: _182  and  _183
REMARK   78  A    between atoms: _186  and  _188
REMARK   79  A    between atoms: _188  and  _189
REMARK   80  A    between atoms: _188  and  _191
REMARK   81  A    between atoms: _191  and  _192
REMARK   82  A    between atoms: _195  and  _197
REMARK   83  A    between atoms: _197  and  _198
REMARK   84  A    between atoms: _197  and  _200
REMARK   85  A    between atoms: _200  and  _201
REMARK   86  A    between atoms: _204  and  _206
REMARK   87  A    between atoms: _206  and  _207
REMARK   88  A    between atoms: _206  and  _209
REMARK   89  A    between atoms: _209  and  _210
REMARK   90  A    between atoms: _217  and  _218
REMARK   91  A    between atoms: _223  and  _225
REMARK   92  A    between atoms: _225  and  _226
REMARK   93  A    between atoms: _225  and  _228
REMARK   94  A    between atoms: _228  and  _229
REMARK   95  A    between atoms: _234  and  _236
REMARK   96  A    between atoms: _236  and  _237
REMARK   97  A    between atoms: _236  and  _239
REMARK   98  A    between atoms: _239  and  _240
REMARK   99  A    between atoms: _242  and  _244
REMARK  100  A    between atoms: _244  and  _245
REMARK  101  A    between atoms: _244  and  _247
REMARK  102  A    between atoms: _247  and  _248
REMARK  103  A    between atoms: _248  and  _249
REMARK  104  A    between atoms: _254  and  _256
REMARK  105  A    between atoms: _256  and  _257
REMARK  106  A    between atoms: _256  and  _259
REMARK  107  A    between atoms: _259  and  _260
REMARK  108  A    between atoms: _262  and  _264
REMARK  109  A    between atoms: _264  and  _265
REMARK  110  A    between atoms: _267  and  _269
REMARK  111  A    between atoms: _269  and  _270
REMARK  112  A    between atoms: _269  and  _272
REMARK  113  A    between atoms: _272  and  _273
REMARK  114  A    between atoms: _276  and  _278
REMARK  115  A    between atoms: _278  and  _279
REMARK  116  A    between atoms: _278  and  _281
REMARK  117  A    between atoms: _281  and  _282
REMARK  118  A    between atoms: _287  and  _289
REMARK  119  A    between atoms: _289  and  _290
REMARK  120  A    between atoms: _289  and  _292
REMARK  121  A    between atoms: _292  and  _293
REMARK  122  A    between atoms: _296  and  _298
REMARK  123  A    between atoms: _298  and  _299
REMARK  124  A    between atoms: _302  and  _304
REMARK  125  A    between atoms: _304  and  _305
REMARK  126  A    between atoms: _304  and  _307
REMARK  127  A    between atoms: _307  and  _308
REMARK  128  A    between atoms: _313  and  _314
REMARK  129  A    between atoms: _316  and  _318
REMARK  130  A    between atoms: _318  and  _319
REMARK  131  A    between atoms: _318  and  _321
REMARK  132  A    between atoms: _321  and  _322
REMARK  133  A    between atoms: _327  and  _328
REMARK  134  A    between atoms: _330  and  _332
REMARK  135  A    between atoms: _332  and  _333
REMARK  136  A    between atoms: _332  and  _335
REMARK  137  A    between atoms: _335  and  _336
REMARK  138  A    between atoms: _336  and  _337
REMARK  139  A    between atoms: _342  and  _344
REMARK  140  A    between atoms: _344  and  _345
REMARK  141  A    between atoms: _344  and  _347
REMARK  142  A    between atoms: _350  and  _352
REMARK  143  A    between atoms: _352  and  _353
REMARK  144  A    between atoms: _352  and  _355
REMARK  145  A    between atoms: _358  and  _360
REMARK  146  A    between atoms: _360  and  _361
REMARK  147  A    between atoms: _360  and  _363
REMARK  148  A    between atoms: _363  and  _364
REMARK  149  A    between atoms: _364  and  _365
REMARK  150  A    between atoms: _365  and  _366
REMARK  151  A    between atoms: _375  and  _377
REMARK  152  A    between atoms: _377  and  _378
REMARK  153  A    between atoms: _381  and  _383
REMARK  154  A    between atoms: _383  and  _384
REMARK  155  A    between atoms: _383  and  _386
REMARK  156  A    between atoms: _386  and  _387
REMARK  157  A    between atoms: _389  and  _391
REMARK  158  A    between atoms: _391  and  _392
REMARK  159  A    between atoms: _391  and  _394
REMARK  160  A    between atoms: _394  and  _395
REMARK  161  A    between atoms: _400  and  _402
REMARK  162  A    between atoms: _402  and  _403
REMARK  163  A    between atoms: _402  and  _405
REMARK  164  A    between atoms: _405  and  _406
REMARK  165  A    between atoms: _416  and  _418
REMARK  166  A    between atoms: _418  and  _419
REMARK  167  A    between atoms: _418  and  _421
REMARK  168  A    between atoms: _421  and  _422
REMARK  169  A    between atoms: _425  and  _427
REMARK  170  A    between atoms: _427  and  _428
REMARK  171  A    between atoms: _427  and  _430
REMARK  172  A    between atoms: _430  and  _431
REMARK  173  A    between atoms: _436  and  _437
REMARK  174  A    between atoms: _439  and  _441
REMARK  175  A    between atoms: _441  and  _442
REMARK  176  A    between atoms: _444  and  _446
REMARK  177  A    between atoms: _446  and  _447
REMARK  178  A    between atoms: _446  and  _449
REMARK  179  A    between atoms: _449  and  _450
REMARK  180  A    between atoms: _460  and  _462
REMARK  181  A    between atoms: _462  and  _463
REMARK  182  A    between atoms: _462  and  _465
REMARK  183  A    between atoms: _465  and  _466
REMARK  184  A    between atoms: _468  and  _470
REMARK  185  A    between atoms: _470  and  _471
REMARK  186  A    between atoms: _473  and  _475
REMARK  187  A    between atoms: _475  and  _476
REMARK  188  A    between atoms: _475  and  _478
REMARK  189  A    between atoms: _478  and  _479
REMARK  190  A    between atoms: _482  and  _484
REMARK  191  A    between atoms: _484  and  _485
REMARK  192  A    between atoms: _484  and  _487
REMARK  193  A    between atoms: _487  and  _488
REMARK  194  A    between atoms: _493  and  _495
REMARK  195  A    between atoms: _495  and  _496
REMARK  196  A    between atoms: _495  and  _498
REMARK  197  A    between atoms: _498  and  _499
REMARK  198  A    between atoms: _504  and  _506
REMARK  199  A    between atoms: _506  and  _507
REMARK  200  A    between atoms: _506  and  _509
REMARK  201  A    between atoms: _509  and  _510
REMARK  202  A    between atoms: _517  and  _518
REMARK  203  A    between atoms: _523  and  _525
REMARK  204  A    between atoms: _525  and  _526
REMARK  205  A    between atoms: _525  and  _528
REMARK  206  A    between atoms: _528  and  _529
REMARK  207  A    between atoms: _532  and  _534
REMARK  208  A    between atoms: _534  and  _535
REMARK  209  A    between atoms: _534  and  _537
REMARK  210  A    between atoms: _537  and  _538
REMARK  211  A    between atoms: _540  and  _542
REMARK  212  A    between atoms: _542  and  _543
REMARK  213  A    between atoms: _542  and  _545
REMARK  214  A    between atoms: _545  and  _546
REMARK  215  A    between atoms: _551  and  _552
REMARK  216  A    between atoms: _554  and  _556
REMARK  217  A    between atoms: _556  and  _557
REMARK  218  A    between atoms: _556  and  _559
REMARK  219  A    between atoms: _559  and  _560
REMARK  220  A    between atoms: _562  and  _564
REMARK  221  A    between atoms: _564  and  _565
REMARK  222  A    between atoms: _564  and  _567
REMARK  223  A    between atoms: _567  and  _568
REMARK  224  A    between atoms: _571  and  _573
REMARK  225  A    between atoms: _573  and  _574
REMARK  226  A    between atoms: _573  and  _576
REMARK  227  A    between atoms: _576  and  _577
REMARK  228  A    between atoms: _582  and  _584
REMARK  229  A    between atoms: _584  and  _585
REMARK  230  A    between atoms: _584  and  _587
REMARK  231  A    between atoms: _587  and  _588
REMARK  232  A    between atoms: _594  and  _596
REMARK  233  A    between atoms: _596  and  _597
REMARK  234  A    between atoms: _601  and  _602
REMARK  235  A    between atoms: _607  and  _609
REMARK  236  A    between atoms: _609  and  _610
REMARK  237  A    between atoms: _609  and  _612
REMARK  238  A    between atoms: _612  and  _613
REMARK  239  A    between atoms: _618  and  _619
REMARK  240  A    between atoms: _621  and  _623
REMARK  241  A    between atoms: _623  and  _624
REMARK  242  A    between atoms: _623  and  _626
REMARK  243  A    between atoms: _626  and  _627
REMARK  244  A    between atoms: _627  and  _628
REMARK  245  A    between atoms: _628  and  _629
REMARK  246  A    between atoms: _629  and  _630
REMARK  247  A    between atoms: _634  and  _636
REMARK  248  A    between atoms: _636  and  _637
REMARK  249  A    between atoms: _636  and  _639
REMARK  250  A    between atoms: _639  and  _640
REMARK  251  A    between atoms: _640  and  _641
REMARK  252  A    between atoms: _646  and  _648
REMARK  253  A    between atoms: _648  and  _649
REMARK  254  A    between atoms: _648  and  _651
REMARK  255  A    between atoms: _651  and  _652
REMARK  256  A    between atoms: _655  and  _656
REMARK  257  A    between atoms: _661  and  _663
REMARK  258  A    between atoms: _663  and  _664
REMARK  259  A    between atoms: _663  and  _666
REMARK  260  A    between atoms: _666  and  _667
REMARK  261  A    between atoms: _673  and  _675
REMARK  262  A    between atoms: _675  and  _676
REMARK  263  A    between atoms: _678  and  _680
REMARK  264  A    between atoms: _680  and  _681
REMARK  265  A    between atoms: _680  and  _683
REMARK  266  A    between atoms: _683  and  _684
REMARK  267  A    between atoms: _689  and  _690
REMARK  268  A    between atoms: _692  and  _694
REMARK  269  A    between atoms: _694  and  _695
REMARK  270  A    between atoms: _694  and  _697
REMARK  271  A    between atoms: _697  and  _698
REMARK  272  A    between atoms: _701  and  _703
REMARK  273  A    between atoms: _703  and  _704
REMARK  274  A    between atoms: _703  and  _706
REMARK  275  A    between atoms: _706  and  _707
REMARK  276  A    between atoms: _712  and  _713
REMARK                            x       y       z     vdW  Elec       q    Type
REMARK                         _______ _______ _______ _____ _____    ______ ____
ROOT
ATOM      1  CA  ASP A   3      16.168  -7.813  -9.023  0.00  0.00    +0.160 C 
ENDROOT
BRANCH   1   3
ATOM      2  C   ILE A   2      15.590  -5.514  -9.581  0.00  0.00    +0.241 C 
ATOM      3  N   ASP A   3      16.522  -6.420  -9.304  0.00  0.00    -0.297 N 
ATOM      4  H   ASP A   3      17.522  -6.134  -9.286  0.00  0.00    +0.150 HD
ATOM      5  O   ILE A   2      14.399  -5.800  -9.710  0.00  0.00    -0.273 OA
BRANCH   2   6
ATOM      6  CA  ILE A   2      16.057  -4.064  -9.714  0.00  0.00    +0.148 C 
BRANCH   6   8
ATOM      7  C   LEU A   1      15.448  -2.477 -11.445  0.00  0.00    +0.238 C 
ATOM      8  N   ILE A   2      15.073  -3.279 -10.452  0.00  0.00    -0.297 N 
ATOM      9  H   ILE A   2      14.067  -3.347 -10.199  0.00  0.00    +0.150 HD
ATOM     10  O   LEU A   1      16.620  -2.232 -11.689  0.00  0.00    -0.274 OA
BRANCH   7  11
ATOM     11  CA  LEU A   1      14.353  -1.827 -12.273  0.00  0.00    +0.145 C 
BRANCH  11  12
ATOM     12  N   LEU A   1      14.819  -0.476 -12.591  0.00  0.00    -0.238 NA
ATOM     13  H   LEU A   1      15.843  -0.299 -12.637  0.00  0.00    +0.142 HD
ENDBRANCH  11  12
BRANCH  11  14
ATOM     14  CB  LEU A   1      14.106  -2.634 -13.558  0.00  0.00    +0.026 C 
BRANCH  14  15
ATOM     15  CG  LEU A   1      13.790  -4.128 -13.392  0.00  0.00    +0.002 C 
ATOM     16  CD2 LEU A   1      12.448  -4.326 -12.672  0.00  0.00    +0.000 C 
ATOM     17  CD1 LEU A   1      13.770  -4.830 -14.752  0.00  0.00    +0.000 C 
ENDBRANCH  14  15
ENDBRANCH  11  14
ENDBRANCH   7  11
ENDBRANCH   6   8
BRANCH   6  18
ATOM     18  CB  ILE A   2      16.308  -3.481  -8.307  0.00  0.00    +0.027 C 
ATOM     19  CG2 ILE A   2      16.693  -2.003  -8.403  0.00  0.00    +0.002 C 
BRANCH  18  20
ATOM     20  CG1 ILE A   2      15.075  -3.658  -7.414  0.00  0.00    +0.002 C 
ATOM     21  CD1 ILE A   2      15.316  -3.256  -5.966  0.00  0.00    +0.000 C 
ENDBRANCH  18  20
ENDBRANCH   6  18
ENDBRANCH   2   6
ENDBRANCH   1   3
BRANCH   1  22
ATOM     22  C   ASP A   3      16.385  -8.198  -7.549  0.00  0.00    +0.241 C 
ATOM     23  O   ASP A   3      17.140  -7.542  -6.828  0.00  0.00    -0.273 OA
ATOM     24  N   PHE A   4      15.686  -9.249  -7.119  0.00  0.00    -0.297 N 
ATOM     25  H   PHE A   4      14.916  -9.610  -7.718  0.00  0.00    +0.150 HD
BRANCH  24  26
ATOM     26  CA  PHE A   4      15.951  -9.919  -5.844  0.00  0.00    +0.153 C 
BRANCH  26  27
ATOM     27  C   PHE A   4      16.203  -8.972  -4.661  0.00  0.00    +0.244 C 
ATOM     28  O   PHE A   4      17.271  -9.001  -4.051  0.00  0.00    -0.273 OA
ATOM     29  N   PRO A   5      15.213  -8.142  -4.317  0.00  0.00    -0.273 N 
ATOM     30  CA  PRO A   5      15.386  -7.249  -3.165  0.00  0.00    +0.140 C 
ATOM     31  CB  PRO A   5      14.100  -6.412  -3.176  0.00  0.00    +0.030 C 
ATOM     32  CG  PRO A   5      13.100  -7.272  -3.859  0.00  0.00    +0.024 C 
ATOM     33  CD  PRO A   5      13.875  -8.013  -4.919  0.00  0.00    +0.094 C 
BRANCH  30  34
ATOM     34  C   PRO A   5      15.478  -8.031  -1.860  0.00  0.00    +0.227 C 
ATOM     35  O   PRO A   5      14.909  -9.115  -1.772  0.00  0.00    -0.286 OA
ENDBRANCH  30  34
ENDBRANCH  26  27
BRANCH  26  36
ATOM     36  CB  PHE A   4      17.163 -10.846  -5.994  0.00  0.00    +0.055 C 
BRANCH  36  37
ATOM     37  CG  PHE A   4      17.010 -11.890  -7.073  0.00  0.00    -0.020 A 
ATOM     38  CD2 PHE A   4      15.875 -12.692  -7.131  0.00  0.00    -0.004 A 
ATOM     39  CE2 PHE A   4      15.738 -13.658  -8.115  0.00  0.00    -0.000 A 
ATOM     40  CZ  PHE A   4      16.737 -13.832  -9.062  0.00  0.00    -0.000 A 
ATOM     41  CE1 PHE A   4      17.879 -13.035  -9.016  0.00  0.00    -0.000 A 
ATOM     42  CD1 PHE A   4      18.005 -12.065  -8.022  0.00  0.00    -0.004 A 
ENDBRANCH  36  37
ENDBRANCH  26  36
ENDBRANCH  24  26
ENDBRANCH   1  22
BRANCH   1  43
ATOM     43  CB  ASP A   3      16.940  -8.781  -9.940  0.00  0.00    +0.143 C 
BRANCH  43  44
ATOM     44  CG  ASP A   3      18.472  -8.650  -9.826  0.00  0.00    +0.367 C 
ATOM     45  OD2 ASP A   3      18.981  -7.720  -9.168  0.00  0.00    -0.246 OA
ATOM     46  OD1 ASP A   3      19.176  -9.480 -10.438  0.00  0.00    -0.246 OA
ENDBRANCH  43  44
ENDBRANCH   1  43
TORSDOF 17
REMARK  Name = ../refined-set-2016/3m8u/3m8u_pocket.pdb
REMARK  276 active torsions:
REMARK  status: ('A' for Active; 'I' for Inactive)
REMARK    1  A    between atoms: _1  and  _3
REMARK    2  A    between atoms: _3  and  _4
REMARK    3  A    between atoms: _3  and  _6
REMARK    4  A    between atoms: _6  and  _7
REMARK    5  A    between atoms: _12  and  _14
REMARK    6  A    between atoms: _14  and  _15
REMARK    7  A    between atoms: _14  and  _17
REMARK    8  A    between atoms: _20  and  _22
REMARK    9  A    between atoms: _22  and  _23
REMARK   10  A    between atoms: _22  and  _25
REMARK   11  A    between atoms: _25  and  _26
REMARK   12  A    between atoms: _28  and  _30
REMARK   13  A    between atoms: _30  and  _31
REMARK   14  A    between atoms: _30  and  _33
REMARK   15  A    between atoms: _33  and  _34
REMARK   16  A    between atoms: _34  and  _35
REMARK   17  A    between atoms: _35  and  _36
REMARK   18  A    between atoms: _45  and  _47
REMARK   19  A    between atoms: _47  and  _48
REMARK   20  A    between atoms: _47  and  _50
REMARK   21  A    between atoms: _50  and  _51
REMARK   22  A    between atoms: _54  and  _56
REMARK   23  A    between atoms: _56  and  _57
REMARK   24  A    between atoms: _56  and  _59
REMARK   25  A    between atoms: _62  and  _64
REMARK   26  A    between atoms: _64  and  _65
REMARK   27  A    between atoms: _64  and  _67
REMARK   28  A    between atoms: _67  and  _68
REMARK   29  A    between atoms: _68  and  _69
REMARK   30  A    between atoms: _71  and  _73
REMARK   31  A    between atoms: _73  and  _74
REMARK   32  A    between atoms: _73  and  _76
REMARK   33  A    between atoms: _76  and  _77
REMARK   34  A    between atoms: _80  and  _82
REMARK   35  A    between atoms: _82  and  _83
REMARK   36  A    between atoms: _85  and  _87
REMARK   37  A    between atoms: _87  and  _88
REMARK   38  A    between atoms: _87  and  _90
REMARK   39  A    between atoms: _90  and  _91
REMARK   40  A    between atoms: _94  and  _96
REMARK   41  A    between atoms: _96  and  _97
REMARK   42  A    between atoms: _96  and  _99
REMARK   43  A    between atoms: _99  and  _100
REMARK   44  A    between atoms: _102  and  _104
REMARK   45  A    between atoms: _104  and  _105
REMARK   46  A    between atoms: _104  and  _107
REMARK   47  A    between atoms: _107  and  _108
REMARK   48  A    between atoms: _113  and  _114
REMARK   49  A    between atoms: _116  and  _118
REMARK   50  A    between atoms: _118  and  _119
REMARK   51  A    between atoms: _118  and  _121
REMARK   52  A    between atoms: _121  and  _122
REMARK   53  A    between atoms: _127  and  _129
REMARK   54  A    between atoms: _129  and  _130
REMARK   55  A    between atoms: _133  and  _135
REMARK   56  A    between atoms: _135  and  _136
REMARK   57  A    between atoms: _135  and  _138
REMARK   58  A    between atoms: _138  and  _139
REMARK   59  A    between atoms: _139  and  _140
REMARK   60  A    between atoms: _145  and  _147
REMARK   61  A    between atoms: _147  and  _148
REMARK   62  A    between atoms: _147  and  _150
REMARK   63  A    between atoms: _150  and  _151
REMARK   64  A    between atoms: _156  and  _157
REMARK   65  A    between atoms: _159  and  _161
REMARK   66  A    between atoms: _161  and  _162
REMARK   67  A    between atoms: _161  and  _164
REMARK   68  A    between atoms: _164  and  _165
REMARK   69  A    between atoms: _165  and  _166
REMARK   70  A    between atoms: _168  and  _170
REMARK   71  A    between atoms: _170  and  _171
REMARK   72  A    between atoms: _170  and  _173
REMARK   73  A    between atoms: _173  and  _174
REMARK   74  A    between atoms: _177  and  _179
REMARK   75  A    between atoms: _179  and  _180
REMARK   76  A    between atoms: _179  and  _182
REMARK   77  A    between atoms: _182  and  _183
REMARK   78  A    between atoms: _186  and  _188
REMARK   79  A    between atoms: _188  and  _189
REMARK   80  A    between atoms: _188  and  _191
REMARK   81  A    between atoms: _191  and  _192
REMARK   82  A    between atoms: _195  and  _197
REMARK   83  A    between atoms: _197  and  _198
REMARK   84  A    between atoms: _197  and  _200
REMARK   85  A    between atoms: _200  and  _201
REMARK   86  A    between atoms: _204  and  _206
REMARK   87  A    between atoms: _206  and  _207
REMARK   88  A    between atoms: _206  and  _209
REMARK   89  A    between atoms: _209  and  _210
REMARK   90  A    between atoms: _217  and  _218
REMARK   91  A    between atoms: _223  and  _225
REMARK   92  A    between atoms: _225  and  _226
REMARK   93  A    between atoms: _225  and  _228
REMARK   94  A    between atoms: _228  and  _229
REMARK   95  A    between atoms: _234  and  _236
REMARK   96  A    between atoms: _236  and  _237
REMARK   97  A    between atoms: _236  and  _239
REMARK   98  A    between atoms: _239  and  _240
REMARK   99  A    between atoms: _242  and  _244
REMARK  100  A    between atoms: _244  and  _245
REMARK  101  A    between atoms: _244  and  _247
REMARK  102  A    between atoms: _247  and  _248
REMARK  103  A    between atoms: _248  and  _249
REMARK  104  A    between atoms: _254  and  _256
REMARK  105  A    between atoms: _256  and  _257
REMARK  106  A    between atoms: _256  and  _259
REMARK  107  A    between atoms: _259  and  _260
REMARK  108  A    between atoms: _262  and  _264
REMARK  109  A    between atoms: _264  and  _265
REMARK  110  A    between atoms: _267  and  _269
REMARK  111  A    between atoms: _269  and  _270
REMARK  112  A    between atoms: _269  and  _272
REMARK  113  A    between atoms: _272  and  _273
REMARK  114  A    between atoms: _276  and  _278
REMARK  115  A    between atoms: _278  and  _279
REMARK  116  A    between atoms: _278  and  _281
REMARK  117  A    between atoms: _281  and  _282
REMARK  118  A    between atoms: _287  and  _289
REMARK  119  A    between atoms: _289  and  _290
REMARK  120  A    between atoms: _289  and  _292
REMARK  121  A    between atoms: _292  and  _293
REMARK  122  A    between atoms: _296  and  _298
REMARK  123  A    between atoms: _298  and  _299
REMARK  124  A    between atoms: _302  and  _304
REMARK  125  A    between atoms: _304  and  _305
REMARK  126  A    between atoms: _304  and  _307
REMARK  127  A    between atoms: _307  and  _308
REMARK  128  A    between atoms: _313  and  _314
REMARK  129  A    between atoms: _316  and  _318
REMARK  130  A    between atoms: _318  and  _319
REMARK  131  A    between atoms: _318  and  _321
REMARK  132  A    between atoms: _321  and  _322
REMARK  133  A    between atoms: _327  and  _328
REMARK  134  A    between atoms: _330  and  _332
REMARK  135  A    between atoms: _332  and  _333
REMARK  136  A    between atoms: _332  and  _335
REMARK  137  A    between atoms: _335  and  _336
REMARK  138  A    between atoms: _336  and  _337
REMARK  139  A    between atoms: _342  and  _344
REMARK  140  A    between atoms: _344  and  _345
REMARK  141  A    between atoms: _344  and  _347
REMARK  142  A    between atoms: _350  and  _352
REMARK  143  A    between atoms: _352  and  _353
REMARK  144  A    between atoms: _352  and  _355
REMARK  145  A    between atoms: _358  and  _360
REMARK  146  A    between atoms: _360  and  _361
REMARK  147  A    between atoms: _360  and  _363
REMARK  148  A    between atoms: _363  and  _364
REMARK  149  A    between atoms: _364  and  _365
REMARK  150  A    between atoms: _365  and  _366
REMARK  151  A    between atoms: _375  and  _377
REMARK  152  A    between atoms: _377  and  _378
REMARK  153  A    between atoms: _381  and  _383
REMARK  154  A    between atoms: _383  and  _384
REMARK  155  A    between atoms: _383  and  _386
REMARK  156  A    between atoms: _386  and  _387
REMARK  157  A    between atoms: _389  and  _391
REMARK  158  A    between atoms: _391  and  _392
REMARK  159  A    between atoms: _391  and  _394
REMARK  160  A    between atoms: _394  and  _395
REMARK  161  A    between atoms: _400  and  _402
REMARK  162  A    between atoms: _402  and  _403
REMARK  163  A    between atoms: _402  and  _405
REMARK  164  A    between atoms: _405  and  _406
REMARK  165  A    between atoms: _416  and  _418
REMARK  166  A    between atoms: _418  and  _419
REMARK  167  A    between atoms: _418  and  _421
REMARK  168  A    between atoms: _421  and  _422
REMARK  169  A    between atoms: _425  and  _427
REMARK  170  A    between atoms: _427  and  _428
REMARK  171  A    between atoms: _427  and  _430
REMARK  172  A    between atoms: _430  and  _431
REMARK  173  A    between atoms: _436  and  _437
REMARK  174  A    between atoms: _439  and  _441
REMARK  175  A    between atoms: _441  and  _442
REMARK  176  A    between atoms: _444  and  _446
REMARK  177  A    between atoms: _446  and  _447
REMARK  178  A    between atoms: _446  and  _449
REMARK  179  A    between atoms: _449  and  _450
REMARK  180  A    between atoms: _460  and  _462
REMARK  181  A    between atoms: _462  and  _463
REMARK  182  A    between atoms: _462  and  _465
REMARK  183  A    between atoms: _465  and  _466
REMARK  184  A    between atoms: _468  and  _470
REMARK  185  A    between atoms: _470  and  _471
REMARK  186  A    between atoms: _473  and  _475
REMARK  187  A    between atoms: _475  and  _476
REMARK  188  A    between atoms: _475  and  _478
REMARK  189  A    between atoms: _478  and  _479
REMARK  190  A    between atoms: _482  and  _484
REMARK  191  A    between atoms: _484  and  _485
REMARK  192  A    between atoms: _484  and  _487
REMARK  193  A    between atoms: _487  and  _488
REMARK  194  A    between atoms: _493  and  _495
REMARK  195  A    between atoms: _495  and  _496
REMARK  196  A    between atoms: _495  and  _498
REMARK  197  A    between atoms: _498  and  _499
REMARK  198  A    between atoms: _504  and  _506
REMARK  199  A    between atoms: _506  and  _507
REMARK  200  A    between atoms: _506  and  _509
REMARK  201  A    between atoms: _509  and  _510
REMARK  202  A    between atoms: _517  and  _518
REMARK  203  A    between atoms: _523  and  _525
REMARK  204  A    between atoms: _525  and  _526
REMARK  205  A    between atoms: _525  and  _528
REMARK  206  A    between atoms: _528  and  _529
REMARK  207  A    between atoms: _532  and  _534
REMARK  208  A    between atoms: _534  and  _535
REMARK  209  A    between atoms: _534  and  _537
REMARK  210  A    between atoms: _537  and  _538
REMARK  211  A    between atoms: _540  and  _542
REMARK  212  A    between atoms: _542  and  _543
REMARK  213  A    between atoms: _542  and  _545
REMARK  214  A    between atoms: _545  and  _546
REMARK  215  A    between atoms: _551  and  _552
REMARK  216  A    between atoms: _554  and  _556
REMARK  217  A    between atoms: _556  and  _557
REMARK  218  A    between atoms: _556  and  _559
REMARK  219  A    between atoms: _559  and  _560
REMARK  220  A    between atoms: _562  and  _564
REMARK  221  A    between atoms: _564  and  _565
REMARK  222  A    between atoms: _564  and  _567
REMARK  223  A    between atoms: _567  and  _568
REMARK  224  A    between atoms: _571  and  _573
REMARK  225  A    between atoms: _573  and  _574
REMARK  226  A    between atoms: _573  and  _576
REMARK  227  A    between atoms: _576  and  _577
REMARK  228  A    between atoms: _582  and  _584
REMARK  229  A    between atoms: _584  and  _585
REMARK  230  A    between atoms: _584  and  _587
REMARK  231  A    between atoms: _587  and  _588
REMARK  232  A    between atoms: _594  and  _596
REMARK  233  A    between atoms: _596  and  _597
REMARK  234  A    between atoms: _601  and  _602
REMARK  235  A    between atoms: _607  and  _609
REMARK  236  A    between atoms: _609  and  _610
REMARK  237  A    between atoms: _609  and  _612
REMARK  238  A    between atoms: _612  and  _613
REMARK  239  A    between atoms: _618  and  _619
REMARK  240  A    between atoms: _621  and  _623
REMARK  241  A    between atoms: _623  and  _624
REMARK  242  A    between atoms: _623  and  _626
REMARK  243  A    between atoms: _626  and  _627
REMARK  244  A    between atoms: _627  and  _628
REMARK  245  A    between atoms: _628  and  _629
REMARK  246  A    between atoms: _629  and  _630
REMARK  247  A    between atoms: _634  and  _636
REMARK  248  A    between atoms: _636  and  _637
REMARK  249  A    between atoms: _636  and  _639
REMARK  250  A    between atoms: _639  and  _640
REMARK  251  A    between atoms: _640  and  _641
REMARK  252  A    between atoms: _646  and  _648
REMARK  253  A    between atoms: _648  and  _649
REMARK  254  A    between atoms: _648  and  _651
REMARK  255  A    between atoms: _651  and  _652
REMARK  256  A    between atoms: _655  and  _656
REMARK  257  A    between atoms: _661  and  _663
REMARK  258  A    between atoms: _663  and  _664
REMARK  259  A    between atoms: _663  and  _666
REMARK  260  A    between atoms: _666  and  _667
REMARK  261  A    between atoms: _673  and  _675
REMARK  262  A    between atoms: _675  and  _676
REMARK  263  A    between atoms: _678  and  _680
REMARK  264  A    between atoms: _680  and  _681
REMARK  265  A    between atoms: _680  and  _683
REMARK  266  A    between atoms: _683  and  _684
REMARK  267  A    between atoms: _689  and  _690
REMARK  268  A    between atoms: _692  and  _694
REMARK  269  A    between atoms: _694  and  _695
REMARK  270  A    between atoms: _694  and  _697
REMARK  271  A    between atoms: _697  and  _698
REMARK  272  A    between atoms: _701  and  _703
REMARK  273  A    between atoms: _703  and  _704
REMARK  274  A    between atoms: _703  and  _706
REMARK  275  A    between atoms: _706  and  _707
REMARK  276  A    between atoms: _712  and  _713
REMARK                            x       y       z     vdW  Elec       q    Type
REMARK                         _______ _______ _______ _____ _____    ______ ____
ROOT
ATOM      1  CA  LEU A   6       5.814 -20.333 -12.921  0.00  0.00    +0.149 C 
ENDROOT
BRANCH   1   4
ATOM      2  C   GLY A   5       5.564 -18.899 -10.969  0.00  0.00    +0.243 C 
ATOM      3  O   GLY A   5       4.902 -19.733 -10.363  0.00  0.00    -0.273 OA
ATOM      4  N   LEU A   6       5.976 -19.070 -12.220  0.00  0.00    -0.297 N 
ATOM      5  H   LEU A   6       6.429 -18.275 -12.714  0.00  0.00    +0.150 HD
BRANCH   2   6
ATOM      6  CA  GLY A   5       5.952 -17.585 -10.316  0.00  0.00    +0.176 C 
BRANCH   6   8
ATOM      7  C   SER A   4       3.834 -16.469  -9.947  0.00  0.00    +0.243 C 
ATOM      8  N   GLY A   5       4.909 -17.071  -9.452  0.00  0.00    -0.295 N 
ATOM      9  H   GLY A   5       5.004 -17.176  -8.422  0.00  0.00    +0.150 HD
ATOM     10  O   SER A   4       3.635 -16.350 -11.156  0.00  0.00    -0.273 OA
BRANCH   7  11
ATOM     11  CA  SER A   4       2.832 -15.920  -8.937  0.00  0.00    +0.178 C 
BRANCH  11  14
ATOM     12  C   GLN A   3       3.343 -13.609  -9.400  0.00  0.00    +0.241 C 
ATOM     13  O   GLN A   3       4.500 -13.750  -9.011  0.00  0.00    -0.273 OA
ATOM     14  N   SER A   4       2.446 -14.579  -9.336  0.00  0.00    -0.295 N 
ATOM     15  H   SER A   4       1.454 -14.379  -9.574  0.00  0.00    +0.150 HD
BRANCH  12  16
ATOM     16  CA  GLN A   3       2.874 -12.284  -9.975  0.00  0.00    +0.149 C 
BRANCH  16  18
ATOM     17  C   SER A   2       3.310  -9.972  -9.366  0.00  0.00    +0.243 C 
ATOM     18  N   GLN A   3       3.706 -11.239  -9.402  0.00  0.00    -0.297 N 
ATOM     19  H   GLN A   3       4.636 -11.490  -9.010  0.00  0.00    +0.150 HD
ATOM     20  O   SER A   2       2.251  -9.584  -9.854  0.00  0.00    -0.273 OA
BRANCH  17  21
ATOM     21  CA  SER A   2       4.253  -9.004  -8.670  0.00  0.00    +0.178 C 
BRANCH  21  24
ATOM     22  C   HIS A   1       5.174  -6.874  -9.332  0.00  0.00    +0.239 C 
ATOM     23  O   HIS A   1       6.284  -7.188  -8.917  0.00  0.00    -0.274 OA
ATOM     24  N   SER A   2       4.115  -7.662  -9.220  0.00  0.00    -0.295 N 
ATOM     25  H   SER A   2       3.181  -7.321  -9.526  0.00  0.00    +0.150 HD
BRANCH  22  26
ATOM     26  CA  HIS A   1       4.951  -5.530 -10.006  0.00  0.00    +0.151 C 
BRANCH  26  27
ATOM     27  N   HIS A   1       5.698  -4.509  -9.288  0.00  0.00    -0.238 NA
ATOM     28  H   HIS A   1       6.676  -4.299  -9.573  0.00  0.00    +0.142 HD
ENDBRANCH  26  27
BRANCH  26  29
ATOM     29  CB  HIS A   1       5.403  -5.610 -11.466  0.00  0.00    +0.074 C 
BRANCH  29  30
ATOM     30  CG  HIS A   1       5.288  -4.313 -12.199  0.00  0.00    +0.082 A 
ATOM     31  CD2 HIS A   1       6.183  -3.314 -12.394  0.00  0.00    +0.115 A 
ATOM     32  NE2 HIS A   1       5.553  -2.345 -13.136  0.00  0.00    -0.221 NA
ATOM     33  CE1 HIS A   1       4.313  -2.729 -13.381  0.00  0.00    +0.199 A 
ATOM     34  ND1 HIS A   1       4.127  -3.913 -12.823  0.00  0.00    -0.227 NA
ENDBRANCH  29  30
ENDBRANCH  26  29
ENDBRANCH  22  26
ENDBRANCH  21  24
BRANCH  21  35
ATOM     35  CB  SER A   2       3.975  -8.993  -7.170  0.00  0.00    +0.166 C 
BRANCH  35  36
ATOM     36  OG  SER A   2       2.668  -8.516  -6.915  0.00  0.00    -0.380 OA
ATOM     37  H   SER A   2       2.580  -7.595  -7.267  0.00  0.00    +0.211 HD
ENDBRANCH  35  36
ENDBRANCH  21  35
ENDBRANCH  17  21
ENDBRANCH  16  18
BRANCH  16  38
ATOM     38  CB  GLN A   3       3.038 -12.316 -11.497  0.00  0.00    +0.039 C 
BRANCH  38  39
ATOM     39  CG  GLN A   3       4.431 -12.755 -11.912  0.00  0.00    +0.087 C 
BRANCH  39  40
ATOM     40  CD  GLN A   3       4.638 -12.776 -13.416  0.00  0.00    +0.219 C 
ATOM     41  NE2 GLN A   3       5.857 -13.101 -13.836  0.00  0.00    -0.329 N 
ATOM     42 HE21 GLN A   3       6.600 -13.333 -13.146  0.00  0.00    +0.145 HD
ATOM     43 HE22 GLN A   3       6.067 -13.123 -14.854  0.00  0.00    +0.145 HD
ATOM     44  OE1 GLN A   3       3.722 -12.493 -14.189  0.00  0.00    -0.275 OA
ENDBRANCH  39  40
ENDBRANCH  38  39
ENDBRANCH  16  38
ENDBRANCH  12  16
ENDBRANCH  11  14
BRANCH  11  45
ATOM     45  CB  SER A   4       1.598 -16.811  -8.862  0.00  0.00    +0.166 C 
BRANCH  45  46
ATOM     46  OG  SER A   4       0.711 -16.342  -7.859  0.00  0.00    -0.380 OA
ATOM     47  H   SER A   4      -0.085 -16.930  -7.822  0.00  0.00    +0.211 HD
ENDBRANCH  45  46
ENDBRANCH  11  45
ENDBRANCH   7  11
ENDBRANCH   6   8
ENDBRANCH   2   6
ENDBRANCH   1   4
BRANCH   1  48
ATOM     48  C   LEU A   6       7.073 -21.132 -12.626  0.00  0.00    +0.241 C 
ATOM     49  N   ASN A   7       7.246 -21.534 -11.371  0.00  0.00    -0.297 N 
ATOM     50  H   ASN A   7       6.480 -21.413 -10.678  0.00  0.00    +0.150 HD
ATOM     51  O   LEU A   6       7.898 -21.350 -13.511  0.00  0.00    -0.273 OA
BRANCH  49  52
ATOM     52  CA  ASN A   7       8.505 -22.144 -10.961  0.00  0.00    +0.158 C 
BRANCH  52  53
ATOM     53  C   ASN A   7       8.323 -23.107  -9.789  0.00  0.00    +0.241 C 
ATOM     54  O   ASN A   7       7.238 -23.218  -9.234  0.00  0.00    -0.273 OA
ATOM     55  N   ILE A   8       9.394 -23.803  -9.434  0.00  0.00    -0.297 N 
ATOM     56  H   ILE A   8      10.278 -23.670  -9.966  0.00  0.00    +0.150 HD
BRANCH  55  57
ATOM     57  CA  ILE A   8       9.377 -24.747  -8.325  0.00  0.00    +0.149 C 
BRANCH  57  58
ATOM     58  C   ILE A   8      10.772 -24.753  -7.725  0.00  0.00    +0.241 C 
ATOM     59  N   ALA A   9      10.859 -24.581  -6.408  0.00  0.00    -0.297 N 
ATOM     60  H   ALA A   9      10.019 -24.276  -5.876  0.00  0.00    +0.150 HD
ATOM     61  O   ILE A   8      11.755 -24.871  -8.447  0.00  0.00    -0.273 OA
BRANCH  59  62
ATOM     62  CA  ALA A   9      12.112 -24.813  -5.699  0.00  0.00    +0.149 C 
ATOM     63  CB  ALA A   9      12.361 -23.735  -4.682  0.00  0.00    +0.031 C 
BRANCH  62  64
ATOM     64  C   ALA A   9      11.987 -26.172  -5.026  0.00  0.00    +0.241 C 
ATOM     65  O   ALA A   9      10.937 -26.506  -4.473  0.00  0.00    -0.273 OA
ATOM     66  N   TYR A  10      13.050 -26.965  -5.085  0.00  0.00    -0.298 N 
ATOM     67  H   TYR A  10      13.950 -26.594  -5.450  0.00  0.00    +0.150 HD
BRANCH  66  68
ATOM     68  CA  TYR A  10      12.965 -28.351  -4.642  0.00  0.00    +0.141 C 
BRANCH  68  69
ATOM     69  C   TYR A  10      14.254 -28.853  -4.008  0.00  0.00    +0.227 C 
ATOM     70  O   TYR A  10      15.329 -28.266  -4.197  0.00  0.00    -0.286 OA
ENDBRANCH  68  69
BRANCH  68  71
ATOM     71  CB  TYR A  10      12.569 -29.247  -5.827  0.00  0.00    +0.054 C 
BRANCH  71  72
ATOM     72  CG  TYR A  10      13.523 -29.252  -7.023  0.00  0.00    -0.020 A 
ATOM     73  CD2 TYR A  10      14.438 -30.288  -7.205  0.00  0.00    -0.001 A 
ATOM     74  CE2 TYR A  10      15.299 -30.312  -8.301  0.00  0.00    +0.036 A 
ATOM     75  CZ  TYR A  10      15.240 -29.301  -9.232  0.00  0.00    +0.134 A 
ATOM     76  CE1 TYR A  10      14.342 -28.253  -9.074  0.00  0.00    +0.036 A 
ATOM     77  CD1 TYR A  10      13.487 -28.239  -7.982  0.00  0.00    -0.001 A 
BRANCH  75  78
ATOM     78  OH  TYR A  10      16.091 -29.319 -10.310  0.00  0.00    -0.506 OA
ATOM     79  HH  TYR A  10      16.665 -28.512 -10.290  0.00  0.00    +0.292 HD
ENDBRANCH  75  78
ENDBRANCH  71  72
ENDBRANCH  68  71
ENDBRANCH  66  68
ENDBRANCH  62  64
ENDBRANCH  59  62
ENDBRANCH  57  58
BRANCH  57  80
ATOM     80  CB  ILE A   8       8.957 -26.179  -8.784  0.00  0.00    +0.027 C 
ATOM     81  CG2 ILE A   8       9.808 -26.662  -9.969  0.00  0.00    +0.002 C 
BRANCH  80  82
ATOM     82  CG1 ILE A   8       9.081 -27.197  -7.642  0.00  0.00    +0.002 C 
ATOM     83  CD1 ILE A   8       8.114 -26.953  -6.476  0.00  0.00    +0.000 C 
ENDBRANCH  80  82
ENDBRANCH  57  80
ENDBRANCH  55  57
ENDBRANCH  52  53
BRANCH  52  84
ATOM     84  CB  ASN A   7       9.525 -21.052 -10.612  0.00  0.00    +0.114 C 
BRANCH  84  85
ATOM     85  CG  ASN A   7       9.108 -20.213  -9.399  0.00  0.00    +0.222 C 
ATOM     86  OD1 ASN A   7       8.708 -20.747  -8.368  0.00  0.00    -0.275 OA
ATOM     87  ND2 ASN A   7       9.215 -18.892  -9.526  0.00  0.00    -0.329 N 
ATOM     88 HD21 ASN A   7       8.955 -18.271  -8.734  0.00  0.00    +0.145 HD
ATOM     89 HD22 ASN A   7       9.559 -18.481 -10.418  0.00  0.00    +0.145 HD
ENDBRANCH  84  85
ENDBRANCH  52  84
ENDBRANCH  49  52
ENDBRANCH   1  48
BRANCH   1  90
ATOM     90  CB  LEU A   6       5.702 -20.067 -14.421  0.00  0.00    +0.029 C 
BRANCH  90  91
ATOM     91  CG  LEU A   6       5.045 -21.139 -15.278  0.00  0.00    +0.002 C 
ATOM     92  CD2 LEU A   6       3.537 -21.159 -15.032  0.00  0.00    +0.000 C 
ATOM     93  CD1 LEU A   6       5.353 -20.885 -16.758  0.00  0.00    +0.000 C 
ENDBRANCH  90  91
ENDBRANCH   1  90
TORSDOF 38
REMARK  Name = ../refined-set-2016/3m8u/3m8u_pocket.pdb
REMARK  276 active torsions:
REMARK  status: ('A' for Active; 'I' for Inactive)
REMARK    1  A    between atoms: _1  and  _3
REMARK    2  A    between atoms: _3  and  _4
REMARK    3  A    between atoms: _3  and  _6
REMARK    4  A    between atoms: _6  and  _7
REMARK    5  A    between atoms: _12  and  _14
REMARK    6  A    between atoms: _14  and  _15
REMARK    7  A    between atoms: _14  and  _17
REMARK    8  A    between atoms: _20  and  _22
REMARK    9  A    between atoms: _22  and  _23
REMARK   10  A    between atoms: _22  and  _25
REMARK   11  A    between atoms: _25  and  _26
REMARK   12  A    between atoms: _28  and  _30
REMARK   13  A    between atoms: _30  and  _31
REMARK   14  A    between atoms: _30  and  _33
REMARK   15  A    between atoms: _33  and  _34
REMARK   16  A    between atoms: _34  and  _35
REMARK   17  A    between atoms: _35  and  _36
REMARK   18  A    between atoms: _45  and  _47
REMARK   19  A    between atoms: _47  and  _48
REMARK   20  A    between atoms: _47  and  _50
REMARK   21  A    between atoms: _50  and  _51
REMARK   22  A    between atoms: _54  and  _56
REMARK   23  A    between atoms: _56  and  _57
REMARK   24  A    between atoms: _56  and  _59
REMARK   25  A    between atoms: _62  and  _64
REMARK   26  A    between atoms: _64  and  _65
REMARK   27  A    between atoms: _64  and  _67
REMARK   28  A    between atoms: _67  and  _68
REMARK   29  A    between atoms: _68  and  _69
REMARK   30  A    between atoms: _71  and  _73
REMARK   31  A    between atoms: _73  and  _74
REMARK   32  A    between atoms: _73  and  _76
REMARK   33  A    between atoms: _76  and  _77
REMARK   34  A    between atoms: _80  and  _82
REMARK   35  A    between atoms: _82  and  _83
REMARK   36  A    between atoms: _85  and  _87
REMARK   37  A    between atoms: _87  and  _88
REMARK   38  A    between atoms: _87  and  _90
REMARK   39  A    between atoms: _90  and  _91
REMARK   40  A    between atoms: _94  and  _96
REMARK   41  A    between atoms: _96  and  _97
REMARK   42  A    between atoms: _96  and  _99
REMARK   43  A    between atoms: _99  and  _100
REMARK   44  A    between atoms: _102  and  _104
REMARK   45  A    between atoms: _104  and  _105
REMARK   46  A    between atoms: _104  and  _107
REMARK   47  A    between atoms: _107  and  _108
REMARK   48  A    between atoms: _113  and  _114
REMARK   49  A    between atoms: _116  and  _118
REMARK   50  A    between atoms: _118  and  _119
REMARK   51  A    between atoms: _118  and  _121
REMARK   52  A    between atoms: _121  and  _122
REMARK   53  A    between atoms: _127  and  _129
REMARK   54  A    between atoms: _129  and  _130
REMARK   55  A    between atoms: _133  and  _135
REMARK   56  A    between atoms: _135  and  _136
REMARK   57  A    between atoms: _135  and  _138
REMARK   58  A    between atoms: _138  and  _139
REMARK   59  A    between atoms: _139  and  _140
REMARK   60  A    between atoms: _145  and  _147
REMARK   61  A    between atoms: _147  and  _148
REMARK   62  A    between atoms: _147  and  _150
REMARK   63  A    between atoms: _150  and  _151
REMARK   64  A    between atoms: _156  and  _157
REMARK   65  A    between atoms: _159  and  _161
REMARK   66  A    between atoms: _161  and  _162
REMARK   67  A    between atoms: _161  and  _164
REMARK   68  A    between atoms: _164  and  _165
REMARK   69  A    between atoms: _165  and  _166
REMARK   70  A    between atoms: _168  and  _170
REMARK   71  A    between atoms: _170  and  _171
REMARK   72  A    between atoms: _170  and  _173
REMARK   73  A    between atoms: _173  and  _174
REMARK   74  A    between atoms: _177  and  _179
REMARK   75  A    between atoms: _179  and  _180
REMARK   76  A    between atoms: _179  and  _182
REMARK   77  A    between atoms: _182  and  _183
REMARK   78  A    between atoms: _186  and  _188
REMARK   79  A    between atoms: _188  and  _189
REMARK   80  A    between atoms: _188  and  _191
REMARK   81  A    between atoms: _191  and  _192
REMARK   82  A    between atoms: _195  and  _197
REMARK   83  A    between atoms: _197  and  _198
REMARK   84  A    between atoms: _197  and  _200
REMARK   85  A    between atoms: _200  and  _201
REMARK   86  A    between atoms: _204  and  _206
REMARK   87  A    between atoms: _206  and  _207
REMARK   88  A    between atoms: _206  and  _209
REMARK   89  A    between atoms: _209  and  _210
REMARK   90  A    between atoms: _217  and  _218
REMARK   91  A    between atoms: _223  and  _225
REMARK   92  A    between atoms: _225  and  _226
REMARK   93  A    between atoms: _225  and  _228
REMARK   94  A    between atoms: _228  and  _229
REMARK   95  A    between atoms: _234  and  _236
REMARK   96  A    between atoms: _236  and  _237
REMARK   97  A    between atoms: _236  and  _239
REMARK   98  A    between atoms: _239  and  _240
REMARK   99  A    between atoms: _242  and  _244
REMARK  100  A    between atoms: _244  and  _245
REMARK  101  A    between atoms: _244  and  _247
REMARK  102  A    between atoms: _247  and  _248
REMARK  103  A    between atoms: _248  and  _249
REMARK  104  A    between atoms: _254  and  _256
REMARK  105  A    between atoms: _256  and  _257
REMARK  106  A    between atoms: _256  and  _259
REMARK  107  A    between atoms: _259  and  _260
REMARK  108  A    between atoms: _262  and  _264
REMARK  109  A    between atoms: _264  and  _265
REMARK  110  A    between atoms: _267  and  _269
REMARK  111  A    between atoms: _269  and  _270
REMARK  112  A    between atoms: _269  and  _272
REMARK  113  A    between atoms: _272  and  _273
REMARK  114  A    between atoms: _276  and  _278
REMARK  115  A    between atoms: _278  and  _279
REMARK  116  A    between atoms: _278  and  _281
REMARK  117  A    between atoms: _281  and  _282
REMARK  118  A    between atoms: _287  and  _289
REMARK  119  A    between atoms: _289  and  _290
REMARK  120  A    between atoms: _289  and  _292
REMARK  121  A    between atoms: _292  and  _293
REMARK  122  A    between atoms: _296  and  _298
REMARK  123  A    between atoms: _298  and  _299
REMARK  124  A    between atoms: _302  and  _304
REMARK  125  A    between atoms: _304  and  _305
REMARK  126  A    between atoms: _304  and  _307
REMARK  127  A    between atoms: _307  and  _308
REMARK  128  A    between atoms: _313  and  _314
REMARK  129  A    between atoms: _316  and  _318
REMARK  130  A    between atoms: _318  and  _319
REMARK  131  A    between atoms: _318  and  _321
REMARK  132  A    between atoms: _321  and  _322
REMARK  133  A    between atoms: _327  and  _328
REMARK  134  A    between atoms: _330  and  _332
REMARK  135  A    between atoms: _332  and  _333
REMARK  136  A    between atoms: _332  and  _335
REMARK  137  A    between atoms: _335  and  _336
REMARK  138  A    between atoms: _336  and  _337
REMARK  139  A    between atoms: _342  and  _344
REMARK  140  A    between atoms: _344  and  _345
REMARK  141  A    between atoms: _344  and  _347
REMARK  142  A    between atoms: _350  and  _352
REMARK  143  A    between atoms: _352  and  _353
REMARK  144  A    between atoms: _352  and  _355
REMARK  145  A    between atoms: _358  and  _360
REMARK  146  A    between atoms: _360  and  _361
REMARK  147  A    between atoms: _360  and  _363
REMARK  148  A    between atoms: _363  and  _364
REMARK  149  A    between atoms: _364  and  _365
REMARK  150  A    between atoms: _365  and  _366
REMARK  151  A    between atoms: _375  and  _377
REMARK  152  A    between atoms: _377  and  _378
REMARK  153  A    between atoms: _381  and  _383
REMARK  154  A    between atoms: _383  and  _384
REMARK  155  A    between atoms: _383  and  _386
REMARK  156  A    between atoms: _386  and  _387
REMARK  157  A    between atoms: _389  and  _391
REMARK  158  A    between atoms: _391  and  _392
REMARK  159  A    between atoms: _391  and  _394
REMARK  160  A    between atoms: _394  and  _395
REMARK  161  A    between atoms: _400  and  _402
REMARK  162  A    between atoms: _402  and  _403
REMARK  163  A    between atoms: _402  and  _405
REMARK  164  A    between atoms: _405  and  _406
REMARK  165  A    between atoms: _416  and  _418
REMARK  166  A    between atoms: _418  and  _419
REMARK  167  A    between atoms: _418  and  _421
REMARK  168  A    between atoms: _421  and  _422
REMARK  169  A    between atoms: _425  and  _427
REMARK  170  A    between atoms: _427  and  _428
REMARK  171  A    between atoms: _427  and  _430
REMARK  172  A    between atoms: _430  and  _431
REMARK  173  A    between atoms: _436  and  _437
REMARK  174  A    between atoms: _439  and  _441
REMARK  175  A    between atoms: _441  and  _442
REMARK  176  A    between atoms: _444  and  _446
REMARK  177  A    between atoms: _446  and  _447
REMARK  178  A    between atoms: _446  and  _449
REMARK  179  A    between atoms: _449  and  _450
REMARK  180  A    between atoms: _460  and  _462
REMARK  181  A    between atoms: _462  and  _463
REMARK  182  A    between atoms: _462  and  _465
REMARK  183  A    between atoms: _465  and  _466
REMARK  184  A    between atoms: _468  and  _470
REMARK  185  A    between atoms: _470  and  _471
REMARK  186  A    between atoms: _473  and  _475
REMARK  187  A    between atoms: _475  and  _476
REMARK  188  A    between atoms: _475  and  _478
REMARK  189  A    between atoms: _478  and  _479
REMARK  190  A    between atoms: _482  and  _484
REMARK  191  A    between atoms: _484  and  _485
REMARK  192  A    between atoms: _484  and  _487
REMARK  193  A    between atoms: _487  and  _488
REMARK  194  A    between atoms: _493  and  _495
REMARK  195  A    between atoms: _495  and  _496
REMARK  196  A    between atoms: _495  and  _498
REMARK  197  A    between atoms: _498  and  _499
REMARK  198  A    between atoms: _504  and  _506
REMARK  199  A    between atoms: _506  and  _507
REMARK  200  A    between atoms: _506  and  _509
REMARK  201  A    between atoms: _509  and  _510
REMARK  202  A    between atoms: _517  and  _518
REMARK  203  A    between atoms: _523  and  _525
REMARK  204  A    between atoms: _525  and  _526
REMARK  205  A    between atoms: _525  and  _528
REMARK  206  A    between atoms: _528  and  _529
REMARK  207  A    between atoms: _532  and  _534
REMARK  208  A    between atoms: _534  and  _535
REMARK  209  A    between atoms: _534  and  _537
REMARK  210  A    between atoms: _537  and  _538
REMARK  211  A    between atoms: _540  and  _542
REMARK  212  A    between atoms: _542  and  _543
REMARK  213  A    between atoms: _542  and  _545
REMARK  214  A    between atoms: _545  and  _546
REMARK  215  A    between atoms: _551  and  _552
REMARK  216  A    between atoms: _554  and  _556
REMARK  217  A    between atoms: _556  and  _557
REMARK  218  A    between atoms: _556  and  _559
REMARK  219  A    between atoms: _559  and  _560
REMARK  220  A    between atoms: _562  and  _564
REMARK  221  A    between atoms: _564  and  _565
REMARK  222  A    between atoms: _564  and  _567
REMARK  223  A    between atoms: _567  and  _568
REMARK  224  A    between atoms: _571  and  _573
REMARK  225  A    between atoms: _573  and  _574
REMARK  226  A    between atoms: _573  and  _576
REMARK  227  A    between atoms: _576  and  _577
REMARK  228  A    between atoms: _582  and  _584
REMARK  229  A    between atoms: _584  and  _585
REMARK  230  A    between atoms: _584  and  _587
REMARK  231  A    between atoms: _587  and  _588
REMARK  232  A    between atoms: _594  and  _596
REMARK  233  A    between atoms: _596  and  _597
REMARK  234  A    between atoms: _601  and  _602
REMARK  235  A    between atoms: _607  and  _609
REMARK  236  A    between atoms: _609  and  _610
REMARK  237  A    between atoms: _609  and  _612
REMARK  238  A    between atoms: _612  and  _613
REMARK  239  A    between atoms: _618  and  _619
REMARK  240  A    between atoms: _621  and  _623
REMARK  241  A    between atoms: _623  and  _624
REMARK  242  A    between atoms: _623  and  _626
REMARK  243  A    between atoms: _626  and  _627
REMARK  244  A    between atoms: _627  and  _628
REMARK  245  A    between atoms: _628  and  _629
REMARK  246  A    between atoms: _629  and  _630
REMARK  247  A    between atoms: _634  and  _636
REMARK  248  A    between atoms: _636  and  _637
REMARK  249  A    between atoms: _636  and  _639
REMARK  250  A    between atoms: _639  and  _640
REMARK  251  A    between atoms: _640  and  _641
REMARK  252  A    between atoms: _646  and  _648
REMARK  253  A    between atoms: _648  and  _649
REMARK  254  A    between atoms: _648  and  _651
REMARK  255  A    between atoms: _651  and  _652
REMARK  256  A    between atoms: _655  and  _656
REMARK  257  A    between atoms: _661  and  _663
REMARK  258  A    between atoms: _663  and  _664
REMARK  259  A    between atoms: _663  and  _666
REMARK  260  A    between atoms: _666  and  _667
REMARK  261  A    between atoms: _673  and  _675
REMARK  262  A    between atoms: _675  and  _676
REMARK  263  A    between atoms: _678  and  _680
REMARK  264  A    between atoms: _680  and  _681
REMARK  265  A    between atoms: _680  and  _683
REMARK  266  A    between atoms: _683  and  _684
REMARK  267  A    between atoms: _689  and  _690
REMARK  268  A    between atoms: _692  and  _694
REMARK  269  A    between atoms: _694  and  _695
REMARK  270  A    between atoms: _694  and  _697
REMARK  271  A    between atoms: _697  and  _698
REMARK  272  A    between atoms: _701  and  _703
REMARK  273  A    between atoms: _703  and  _704
REMARK  274  A    between atoms: _703  and  _706
REMARK  275  A    between atoms: _706  and  _707
REMARK  276  A    between atoms: _712  and  _713
REMARK                            x       y       z     vdW  Elec       q    Type
REMARK                         _______ _______ _______ _____ _____    ______ ____
ROOT
ATOM      1  CG  TYR A   1       9.594 -18.625   0.142  0.00  0.00    -0.020 A 
ATOM      2  CD2 TYR A   1      10.160 -19.781   0.654  0.00  0.00    -0.001 A 
ATOM      3  CE2 TYR A   1      10.798 -20.689  -0.163  0.00  0.00    +0.036 A 
ATOM      4  CZ  TYR A   1      10.891 -20.443  -1.520  0.00  0.00    +0.134 A 
ATOM      5  CE1 TYR A   1      10.346 -19.300  -2.062  0.00  0.00    +0.036 A 
ATOM      6  CD1 TYR A   1       9.698 -18.393  -1.227  0.00  0.00    -0.001 A 
ENDROOT
BRANCH   4   7
ATOM      7  OH  TYR A   1      11.552 -21.354  -2.324  0.00  0.00    -0.506 OA
ATOM      8  HH  TYR A   1      11.533 -21.039  -3.262  0.00  0.00    +0.292 HD
ENDBRANCH   4   7
BRANCH   1   9
ATOM      9  CB  TYR A   1       8.913 -17.627   1.055  0.00  0.00    +0.051 C 
BRANCH   9  10
ATOM     10  CA  TYR A   1       9.920 -16.716   1.778  0.00  0.00    +0.137 C 
BRANCH  10  11
ATOM     11  N   TYR A   1      10.718 -17.493   2.727  0.00  0.00    -0.239 NA
ATOM     12  H   TYR A   1      10.280 -18.292   3.229  0.00  0.00    +0.142 HD
ENDBRANCH  10  11
BRANCH  10  13
ATOM     13  C   TYR A   1       9.213 -15.528   2.439  0.00  0.00    +0.224 C 
ATOM     14  O   TYR A   1       8.762 -14.606   1.759  0.00  0.00    -0.287 OA
ENDBRANCH  10  13
ENDBRANCH   9  10
ENDBRANCH   1   9
TORSDOF 5
REMARK  Name = ../refined-set-2016/3m8u/3m8u_pocket.pdb
REMARK  276 active torsions:
REMARK  status: ('A' for Active; 'I' for Inactive)
REMARK    1  A    between atoms: _1  and  _3
REMARK    2  A    between atoms: _3  and  _4
REMARK    3  A    between atoms: _3  and  _6
REMARK    4  A    between atoms: _6  and  _7
REMARK    5  A    between atoms: _12  and  _14
REMARK    6  A    between atoms: _14  and  _15
REMARK    7  A    between atoms: _14  and  _17
REMARK    8  A    between atoms: _20  and  _22
REMARK    9  A    between atoms: _22  and  _23
REMARK   10  A    between atoms: _22  and  _25
REMARK   11  A    between atoms: _25  and  _26
REMARK   12  A    between atoms: _28  and  _30
REMARK   13  A    between atoms: _30  and  _31
REMARK   14  A    between atoms: _30  and  _33
REMARK   15  A    between atoms: _33  and  _34
REMARK   16  A    between atoms: _34  and  _35
REMARK   17  A    between atoms: _35  and  _36
REMARK   18  A    between atoms: _45  and  _47
REMARK   19  A    between atoms: _47  and  _48
REMARK   20  A    between atoms: _47  and  _50
REMARK   21  A    between atoms: _50  and  _51
REMARK   22  A    between atoms: _54  and  _56
REMARK   23  A    between atoms: _56  and  _57
REMARK   24  A    between atoms: _56  and  _59
REMARK   25  A    between atoms: _62  and  _64
REMARK   26  A    between atoms: _64  and  _65
REMARK   27  A    between atoms: _64  and  _67
REMARK   28  A    between atoms: _67  and  _68
REMARK   29  A    between atoms: _68  and  _69
REMARK   30  A    between atoms: _71  and  _73
REMARK   31  A    between atoms: _73  and  _74
REMARK   32  A    between atoms: _73  and  _76
REMARK   33  A    between atoms: _76  and  _77
REMARK   34  A    between atoms: _80  and  _82
REMARK   35  A    between atoms: _82  and  _83
REMARK   36  A    between atoms: _85  and  _87
REMARK   37  A    between atoms: _87  and  _88
REMARK   38  A    between atoms: _87  and  _90
REMARK   39  A    between atoms: _90  and  _91
REMARK   40  A    between atoms: _94  and  _96
REMARK   41  A    between atoms: _96  and  _97
REMARK   42  A    between atoms: _96  and  _99
REMARK   43  A    between atoms: _99  and  _100
REMARK   44  A    between atoms: _102  and  _104
REMARK   45  A    between atoms: _104  and  _105
REMARK   46  A    between atoms: _104  and  _107
REMARK   47  A    between atoms: _107  and  _108
REMARK   48  A    between atoms: _113  and  _114
REMARK   49  A    between atoms: _116  and  _118
REMARK   50  A    between atoms: _118  and  _119
REMARK   51  A    between atoms: _118  and  _121
REMARK   52  A    between atoms: _121  and  _122
REMARK   53  A    between atoms: _127  and  _129
REMARK   54  A    between atoms: _129  and  _130
REMARK   55  A    between atoms: _133  and  _135
REMARK   56  A    between atoms: _135  and  _136
REMARK   57  A    between atoms: _135  and  _138
REMARK   58  A    between atoms: _138  and  _139
REMARK   59  A    between atoms: _139  and  _140
REMARK   60  A    between atoms: _145  and  _147
REMARK   61  A    between atoms: _147  and  _148
REMARK   62  A    between atoms: _147  and  _150
REMARK   63  A    between atoms: _150  and  _151
REMARK   64  A    between atoms: _156  and  _157
REMARK   65  A    between atoms: _159  and  _161
REMARK   66  A    between atoms: _161  and  _162
REMARK   67  A    between atoms: _161  and  _164
REMARK   68  A    between atoms: _164  and  _165
REMARK   69  A    between atoms: _165  and  _166
REMARK   70  A    between atoms: _168  and  _170
REMARK   71  A    between atoms: _170  and  _171
REMARK   72  A    between atoms: _170  and  _173
REMARK   73  A    between atoms: _173  and  _174
REMARK   74  A    between atoms: _177  and  _179
REMARK   75  A    between atoms: _179  and  _180
REMARK   76  A    between atoms: _179  and  _182
REMARK   77  A    between atoms: _182  and  _183
REMARK   78  A    between atoms: _186  and  _188
REMARK   79  A    between atoms: _188  and  _189
REMARK   80  A    between atoms: _188  and  _191
REMARK   81  A    between atoms: _191  and  _192
REMARK   82  A    between atoms: _195  and  _197
REMARK   83  A    between atoms: _197  and  _198
REMARK   84  A    between atoms: _197  and  _200
REMARK   85  A    between atoms: _200  and  _201
REMARK   86  A    between atoms: _204  and  _206
REMARK   87  A    between atoms: _206  and  _207
REMARK   88  A    between atoms: _206  and  _209
REMARK   89  A    between atoms: _209  and  _210
REMARK   90  A    between atoms: _217  and  _218
REMARK   91  A    between atoms: _223  and  _225
REMARK   92  A    between atoms: _225  and  _226
REMARK   93  A    between atoms: _225  and  _228
REMARK   94  A    between atoms: _228  and  _229
REMARK   95  A    between atoms: _234  and  _236
REMARK   96  A    between atoms: _236  and  _237
REMARK   97  A    between atoms: _236  and  _239
REMARK   98  A    between atoms: _239  and  _240
REMARK   99  A    between atoms: _242  and  _244
REMARK  100  A    between atoms: _244  and  _245
REMARK  101  A    between atoms: _244  and  _247
REMARK  102  A    between atoms: _247  and  _248
REMARK  103  A    between atoms: _248  and  _249
REMARK  104  A    between atoms: _254  and  _256
REMARK  105  A    between atoms: _256  and  _257
REMARK  106  A    between atoms: _256  and  _259
REMARK  107  A    between atoms: _259  and  _260
REMARK  108  A    between atoms: _262  and  _264
REMARK  109  A    between atoms: _264  and  _265
REMARK  110  A    between atoms: _267  and  _269
REMARK  111  A    between atoms: _269  and  _270
REMARK  112  A    between atoms: _269  and  _272
REMARK  113  A    between atoms: _272  and  _273
REMARK  114  A    between atoms: _276  and  _278
REMARK  115  A    between atoms: _278  and  _279
REMARK  116  A    between atoms: _278  and  _281
REMARK  117  A    between atoms: _281  and  _282
REMARK  118  A    between atoms: _287  and  _289
REMARK  119  A    between atoms: _289  and  _290
REMARK  120  A    between atoms: _289  and  _292
REMARK  121  A    between atoms: _292  and  _293
REMARK  122  A    between atoms: _296  and  _298
REMARK  123  A    between atoms: _298  and  _299
REMARK  124  A    between atoms: _302  and  _304
REMARK  125  A    between atoms: _304  and  _305
REMARK  126  A    between atoms: _304  and  _307
REMARK  127  A    between atoms: _307  and  _308
REMARK  128  A    between atoms: _313  and  _314
REMARK  129  A    between atoms: _316  and  _318
REMARK  130  A    between atoms: _318  and  _319
REMARK  131  A    between atoms: _318  and  _321
REMARK  132  A    between atoms: _321  and  _322
REMARK  133  A    between atoms: _327  and  _328
REMARK  134  A    between atoms: _330  and  _332
REMARK  135  A    between atoms: _332  and  _333
REMARK  136  A    between atoms: _332  and  _335
REMARK  137  A    between atoms: _335  and  _336
REMARK  138  A    between atoms: _336  and  _337
REMARK  139  A    between atoms: _342  and  _344
REMARK  140  A    between atoms: _344  and  _345
REMARK  141  A    between atoms: _344  and  _347
REMARK  142  A    between atoms: _350  and  _352
REMARK  143  A    between atoms: _352  and  _353
REMARK  144  A    between atoms: _352  and  _355
REMARK  145  A    between atoms: _358  and  _360
REMARK  146  A    between atoms: _360  and  _361
REMARK  147  A    between atoms: _360  and  _363
REMARK  148  A    between atoms: _363  and  _364
REMARK  149  A    between atoms: _364  and  _365
REMARK  150  A    between atoms: _365  and  _366
REMARK  151  A    between atoms: _375  and  _377
REMARK  152  A    between atoms: _377  and  _378
REMARK  153  A    between atoms: _381  and  _383
REMARK  154  A    between atoms: _383  and  _384
REMARK  155  A    between atoms: _383  and  _386
REMARK  156  A    between atoms: _386  and  _387
REMARK  157  A    between atoms: _389  and  _391
REMARK  158  A    between atoms: _391  and  _392
REMARK  159  A    between atoms: _391  and  _394
REMARK  160  A    between atoms: _394  and  _395
REMARK  161  A    between atoms: _400  and  _402
REMARK  162  A    between atoms: _402  and  _403
REMARK  163  A    between atoms: _402  and  _405
REMARK  164  A    between atoms: _405  and  _406
REMARK  165  A    between atoms: _416  and  _418
REMARK  166  A    between atoms: _418  and  _419
REMARK  167  A    between atoms: _418  and  _421
REMARK  168  A    between atoms: _421  and  _422
REMARK  169  A    between atoms: _425  and  _427
REMARK  170  A    between atoms: _427  and  _428
REMARK  171  A    between atoms: _427  and  _430
REMARK  172  A    between atoms: _430  and  _431
REMARK  173  A    between atoms: _436  and  _437
REMARK  174  A    between atoms: _439  and  _441
REMARK  175  A    between atoms: _441  and  _442
REMARK  176  A    between atoms: _444  and  _446
REMARK  177  A    between atoms: _446  and  _447
REMARK  178  A    between atoms: _446  and  _449
REMARK  179  A    between atoms: _449  and  _450
REMARK  180  A    between atoms: _460  and  _462
REMARK  181  A    between atoms: _462  and  _463
REMARK  182  A    between atoms: _462  and  _465
REMARK  183  A    between atoms: _465  and  _466
REMARK  184  A    between atoms: _468  and  _470
REMARK  185  A    between atoms: _470  and  _471
REMARK  186  A    between atoms: _473  and  _475
REMARK  187  A    between atoms: _475  and  _476
REMARK  188  A    between atoms: _475  and  _478
REMARK  189  A    between atoms: _478  and  _479
REMARK  190  A    between atoms: _482  and  _484
REMARK  191  A    between atoms: _484  and  _485
REMARK  192  A    between atoms: _484  and  _487
REMARK  193  A    between atoms: _487  and  _488
REMARK  194  A    between atoms: _493  and  _495
REMARK  195  A    between atoms: _495  and  _496
REMARK  196  A    between atoms: _495  and  _498
REMARK  197  A    between atoms: _498  and  _499
REMARK  198  A    between atoms: _504  and  _506
REMARK  199  A    between atoms: _506  and  _507
REMARK  200  A    between atoms: _506  and  _509
REMARK  201  A    between atoms: _509  and  _510
REMARK  202  A    between atoms: _517  and  _518
REMARK  203  A    between atoms: _523  and  _525
REMARK  204  A    between atoms: _525  and  _526
REMARK  205  A    between atoms: _525  and  _528
REMARK  206  A    between atoms: _528  and  _529
REMARK  207  A    between atoms: _532  and  _534
REMARK  208  A    between atoms: _534  and  _535
REMARK  209  A    between atoms: _534  and  _537
REMARK  210  A    between atoms: _537  and  _538
REMARK  211  A    between atoms: _540  and  _542
REMARK  212  A    between atoms: _542  and  _543
REMARK  213  A    between atoms: _542  and  _545
REMARK  214  A    between atoms: _545  and  _546
REMARK  215  A    between atoms: _551  and  _552
REMARK  216  A    between atoms: _554  and  _556
REMARK  217  A    between atoms: _556  and  _557
REMARK  218  A    between atoms: _556  and  _559
REMARK  219  A    between atoms: _559  and  _560
REMARK  220  A    between atoms: _562  and  _564
REMARK  221  A    between atoms: _564  and  _565
REMARK  222  A    between atoms: _564  and  _567
REMARK  223  A    between atoms: _567  and  _568
REMARK  224  A    between atoms: _571  and  _573
REMARK  225  A    between atoms: _573  and  _574
REMARK  226  A    between atoms: _573  and  _576
REMARK  227  A    between atoms: _576  and  _577
REMARK  228  A    between atoms: _582  and  _584
REMARK  229  A    between atoms: _584  and  _585
REMARK  230  A    between atoms: _584  and  _587
REMARK  231  A    between atoms: _587  and  _588
REMARK  232  A    between atoms: _594  and  _596
REMARK  233  A    between atoms: _596  and  _597
REMARK  234  A    between atoms: _601  and  _602
REMARK  235  A    between atoms: _607  and  _609
REMARK  236  A    between atoms: _609  and  _610
REMARK  237  A    between atoms: _609  and  _612
REMARK  238  A    between atoms: _612  and  _613
REMARK  239  A    between atoms: _618  and  _619
REMARK  240  A    between atoms: _621  and  _623
REMARK  241  A    between atoms: _623  and  _624
REMARK  242  A    between atoms: _623  and  _626
REMARK  243  A    between atoms: _626  and  _627
REMARK  244  A    between atoms: _627  and  _628
REMARK  245  A    between atoms: _628  and  _629
REMARK  246  A    between atoms: _629  and  _630
REMARK  247  A    between atoms: _634  and  _636
REMARK  248  A    between atoms: _636  and  _637
REMARK  249  A    between atoms: _636  and  _639
REMARK  250  A    between atoms: _639  and  _640
REMARK  251  A    between atoms: _640  and  _641
REMARK  252  A    between atoms: _646  and  _648
REMARK  253  A    between atoms: _648  and  _649
REMARK  254  A    between atoms: _648  and  _651
REMARK  255  A    between atoms: _651  and  _652
REMARK  256  A    between atoms: _655  and  _656
REMARK  257  A    between atoms: _661  and  _663
REMARK  258  A    between atoms: _663  and  _664
REMARK  259  A    between atoms: _663  and  _666
REMARK  260  A    between atoms: _666  and  _667
REMARK  261  A    between atoms: _673  and  _675
REMARK  262  A    between atoms: _675  and  _676
REMARK  263  A    between atoms: _678  and  _680
REMARK  264  A    between atoms: _680  and  _681
REMARK  265  A    between atoms: _680  and  _683
REMARK  266  A    between atoms: _683  and  _684
REMARK  267  A    between atoms: _689  and  _690
REMARK  268  A    between atoms: _692  and  _694
REMARK  269  A    between atoms: _694  and  _695
REMARK  270  A    between atoms: _694  and  _697
REMARK  271  A    between atoms: _697  and  _698
REMARK  272  A    between atoms: _701  and  _703
REMARK  273  A    between atoms: _703  and  _704
REMARK  274  A    between atoms: _703  and  _706
REMARK  275  A    between atoms: _706  and  _707
REMARK  276  A    between atoms: _712  and  _713
REMARK                            x       y       z     vdW  Elec       q    Type
REMARK                         _______ _______ _______ _____ _____    ______ ____
ROOT
ATOM      1  CB  GLN A   1      21.656 -23.464  -5.008  0.00  0.00    +0.035 C 
ENDROOT
BRANCH   1   2
ATOM      2  CA  GLN A   1      22.982 -23.646  -4.291  0.00  0.00    +0.134 C 
BRANCH   2   3
ATOM      3  N   GLN A   1      22.770 -24.461  -3.094  0.00  0.00    -0.239 NA
ATOM      4  H   GLN A   1      21.800 -24.647  -2.769  0.00  0.00    +0.142 HD
ENDBRANCH   2   3
BRANCH   2   5
ATOM      5  C   GLN A   1      23.586 -22.288  -3.916  0.00  0.00    +0.224 C 
ATOM      6  O   GLN A   1      23.086 -21.614  -3.019  0.00  0.00    -0.287 OA
ENDBRANCH   2   5
ENDBRANCH   1   2
BRANCH   1   7
ATOM      7  CG  GLN A   1      21.729 -22.597  -6.254  0.00  0.00    +0.087 C 
BRANCH   7   8
ATOM      8  CD  GLN A   1      20.439 -22.654  -7.032  0.00  0.00    +0.219 C 
ATOM      9  OE1 GLN A   1      19.632 -21.708  -7.017  0.00  0.00    -0.275 OA
ATOM     10  NE2 GLN A   1      20.219 -23.772  -7.699  0.00  0.00    -0.329 N 
ATOM     11 HE21 GLN A   1      20.925 -24.536  -7.681  0.00  0.00    +0.145 HD
ATOM     12 HE22 GLN A   1      19.340 -23.889  -8.242  0.00  0.00    +0.145 HD
ENDBRANCH   7   8
ENDBRANCH   1   7
TORSDOF 5
REMARK  Name = ../refined-set-2016/3m8u/3m8u_pocket.pdb
REMARK  276 active torsions:
REMARK  status: ('A' for Active; 'I' for Inactive)
REMARK    1  A    between atoms: _1  and  _3
REMARK    2  A    between atoms: _3  and  _4
REMARK    3  A    between atoms: _3  and  _6
REMARK    4  A    between atoms: _6  and  _7
REMARK    5  A    between atoms: _12  and  _14
REMARK    6  A    between atoms: _14  and  _15
REMARK    7  A    between atoms: _14  and  _17
REMARK    8  A    between atoms: _20  and  _22
REMARK    9  A    between atoms: _22  and  _23
REMARK   10  A    between atoms: _22  and  _25
REMARK   11  A    between atoms: _25  and  _26
REMARK   12  A    between atoms: _28  and  _30
REMARK   13  A    between atoms: _30  and  _31
REMARK   14  A    between atoms: _30  and  _33
REMARK   15  A    between atoms: _33  and  _34
REMARK   16  A    between atoms: _34  and  _35
REMARK   17  A    between atoms: _35  and  _36
REMARK   18  A    between atoms: _45  and  _47
REMARK   19  A    between atoms: _47  and  _48
REMARK   20  A    between atoms: _47  and  _50
REMARK   21  A    between atoms: _50  and  _51
REMARK   22  A    between atoms: _54  and  _56
REMARK   23  A    between atoms: _56  and  _57
REMARK   24  A    between atoms: _56  and  _59
REMARK   25  A    between atoms: _62  and  _64
REMARK   26  A    between atoms: _64  and  _65
REMARK   27  A    between atoms: _64  and  _67
REMARK   28  A    between atoms: _67  and  _68
REMARK   29  A    between atoms: _68  and  _69
REMARK   30  A    between atoms: _71  and  _73
REMARK   31  A    between atoms: _73  and  _74
REMARK   32  A    between atoms: _73  and  _76
REMARK   33  A    between atoms: _76  and  _77
REMARK   34  A    between atoms: _80  and  _82
REMARK   35  A    between atoms: _82  and  _83
REMARK   36  A    between atoms: _85  and  _87
REMARK   37  A    between atoms: _87  and  _88
REMARK   38  A    between atoms: _87  and  _90
REMARK   39  A    between atoms: _90  and  _91
REMARK   40  A    between atoms: _94  and  _96
REMARK   41  A    between atoms: _96  and  _97
REMARK   42  A    between atoms: _96  and  _99
REMARK   43  A    between atoms: _99  and  _100
REMARK   44  A    between atoms: _102  and  _104
REMARK   45  A    between atoms: _104  and  _105
REMARK   46  A    between atoms: _104  and  _107
REMARK   47  A    between atoms: _107  and  _108
REMARK   48  A    between atoms: _113  and  _114
REMARK   49  A    between atoms: _116  and  _118
REMARK   50  A    between atoms: _118  and  _119
REMARK   51  A    between atoms: _118  and  _121
REMARK   52  A    between atoms: _121  and  _122
REMARK   53  A    between atoms: _127  and  _129
REMARK   54  A    between atoms: _129  and  _130
REMARK   55  A    between atoms: _133  and  _135
REMARK   56  A    between atoms: _135  and  _136
REMARK   57  A    between atoms: _135  and  _138
REMARK   58  A    between atoms: _138  and  _139
REMARK   59  A    between atoms: _139  and  _140
REMARK   60  A    between atoms: _145  and  _147
REMARK   61  A    between atoms: _147  and  _148
REMARK   62  A    between atoms: _147  and  _150
REMARK   63  A    between atoms: _150  and  _151
REMARK   64  A    between atoms: _156  and  _157
REMARK   65  A    between atoms: _159  and  _161
REMARK   66  A    between atoms: _161  and  _162
REMARK   67  A    between atoms: _161  and  _164
REMARK   68  A    between atoms: _164  and  _165
REMARK   69  A    between atoms: _165  and  _166
REMARK   70  A    between atoms: _168  and  _170
REMARK   71  A    between atoms: _170  and  _171
REMARK   72  A    between atoms: _170  and  _173
REMARK   73  A    between atoms: _173  and  _174
REMARK   74  A    between atoms: _177  and  _179
REMARK   75  A    between atoms: _179  and  _180
REMARK   76  A    between atoms: _179  and  _182
REMARK   77  A    between atoms: _182  and  _183
REMARK   78  A    between atoms: _186  and  _188
REMARK   79  A    between atoms: _188  and  _189
REMARK   80  A    between atoms: _188  and  _191
REMARK   81  A    between atoms: _191  and  _192
REMARK   82  A    between atoms: _195  and  _197
REMARK   83  A    between atoms: _197  and  _198
REMARK   84  A    between atoms: _197  and  _200
REMARK   85  A    between atoms: _200  and  _201
REMARK   86  A    between atoms: _204  and  _206
REMARK   87  A    between atoms: _206  and  _207
REMARK   88  A    between atoms: _206  and  _209
REMARK   89  A    between atoms: _209  and  _210
REMARK   90  A    between atoms: _217  and  _218
REMARK   91  A    between atoms: _223  and  _225
REMARK   92  A    between atoms: _225  and  _226
REMARK   93  A    between atoms: _225  and  _228
REMARK   94  A    between atoms: _228  and  _229
REMARK   95  A    between atoms: _234  and  _236
REMARK   96  A    between atoms: _236  and  _237
REMARK   97  A    between atoms: _236  and  _239
REMARK   98  A    between atoms: _239  and  _240
REMARK   99  A    between atoms: _242  and  _244
REMARK  100  A    between atoms: _244  and  _245
REMARK  101  A    between atoms: _244  and  _247
REMARK  102  A    between atoms: _247  and  _248
REMARK  103  A    between atoms: _248  and  _249
REMARK  104  A    between atoms: _254  and  _256
REMARK  105  A    between atoms: _256  and  _257
REMARK  106  A    between atoms: _256  and  _259
REMARK  107  A    between atoms: _259  and  _260
REMARK  108  A    between atoms: _262  and  _264
REMARK  109  A    between atoms: _264  and  _265
REMARK  110  A    between atoms: _267  and  _269
REMARK  111  A    between atoms: _269  and  _270
REMARK  112  A    between atoms: _269  and  _272
REMARK  113  A    between atoms: _272  and  _273
REMARK  114  A    between atoms: _276  and  _278
REMARK  115  A    between atoms: _278  and  _279
REMARK  116  A    between atoms: _278  and  _281
REMARK  117  A    between atoms: _281  and  _282
REMARK  118  A    between atoms: _287  and  _289
REMARK  119  A    between atoms: _289  and  _290
REMARK  120  A    between atoms: _289  and  _292
REMARK  121  A    between atoms: _292  and  _293
REMARK  122  A    between atoms: _296  and  _298
REMARK  123  A    between atoms: _298  and  _299
REMARK  124  A    between atoms: _302  and  _304
REMARK  125  A    between atoms: _304  and  _305
REMARK  126  A    between atoms: _304  and  _307
REMARK  127  A    between atoms: _307  and  _308
REMARK  128  A    between atoms: _313  and  _314
REMARK  129  A    between atoms: _316  and  _318
REMARK  130  A    between atoms: _318  and  _319
REMARK  131  A    between atoms: _318  and  _321
REMARK  132  A    between atoms: _321  and  _322
REMARK  133  A    between atoms: _327  and  _328
REMARK  134  A    between atoms: _330  and  _332
REMARK  135  A    between atoms: _332  and  _333
REMARK  136  A    between atoms: _332  and  _335
REMARK  137  A    between atoms: _335  and  _336
REMARK  138  A    between atoms: _336  and  _337
REMARK  139  A    between atoms: _342  and  _344
REMARK  140  A    between atoms: _344  and  _345
REMARK  141  A    between atoms: _344  and  _347
REMARK  142  A    between atoms: _350  and  _352
REMARK  143  A    between atoms: _352  and  _353
REMARK  144  A    between atoms: _352  and  _355
REMARK  145  A    between atoms: _358  and  _360
REMARK  146  A    between atoms: _360  and  _361
REMARK  147  A    between atoms: _360  and  _363
REMARK  148  A    between atoms: _363  and  _364
REMARK  149  A    between atoms: _364  and  _365
REMARK  150  A    between atoms: _365  and  _366
REMARK  151  A    between atoms: _375  and  _377
REMARK  152  A    between atoms: _377  and  _378
REMARK  153  A    between atoms: _381  and  _383
REMARK  154  A    between atoms: _383  and  _384
REMARK  155  A    between atoms: _383  and  _386
REMARK  156  A    between atoms: _386  and  _387
REMARK  157  A    between atoms: _389  and  _391
REMARK  158  A    between atoms: _391  and  _392
REMARK  159  A    between atoms: _391  and  _394
REMARK  160  A    between atoms: _394  and  _395
REMARK  161  A    between atoms: _400  and  _402
REMARK  162  A    between atoms: _402  and  _403
REMARK  163  A    between atoms: _402  and  _405
REMARK  164  A    between atoms: _405  and  _406
REMARK  165  A    between atoms: _416  and  _418
REMARK  166  A    between atoms: _418  and  _419
REMARK  167  A    between atoms: _418  and  _421
REMARK  168  A    between atoms: _421  and  _422
REMARK  169  A    between atoms: _425  and  _427
REMARK  170  A    between atoms: _427  and  _428
REMARK  171  A    between atoms: _427  and  _430
REMARK  172  A    between atoms: _430  and  _431
REMARK  173  A    between atoms: _436  and  _437
REMARK  174  A    between atoms: _439  and  _441
REMARK  175  A    between atoms: _441  and  _442
REMARK  176  A    between atoms: _444  and  _446
REMARK  177  A    between atoms: _446  and  _447
REMARK  178  A    between atoms: _446  and  _449
REMARK  179  A    between atoms: _449  and  _450
REMARK  180  A    between atoms: _460  and  _462
REMARK  181  A    between atoms: _462  and  _463
REMARK  182  A    between atoms: _462  and  _465
REMARK  183  A    between atoms: _465  and  _466
REMARK  184  A    between atoms: _468  and  _470
REMARK  185  A    between atoms: _470  and  _471
REMARK  186  A    between atoms: _473  and  _475
REMARK  187  A    between atoms: _475  and  _476
REMARK  188  A    between atoms: _475  and  _478
REMARK  189  A    between atoms: _478  and  _479
REMARK  190  A    between atoms: _482  and  _484
REMARK  191  A    between atoms: _484  and  _485
REMARK  192  A    between atoms: _484  and  _487
REMARK  193  A    between atoms: _487  and  _488
REMARK  194  A    between atoms: _493  and  _495
REMARK  195  A    between atoms: _495  and  _496
REMARK  196  A    between atoms: _495  and  _498
REMARK  197  A    between atoms: _498  and  _499
REMARK  198  A    between atoms: _504  and  _506
REMARK  199  A    between atoms: _506  and  _507
REMARK  200  A    between atoms: _506  and  _509
REMARK  201  A    between atoms: _509  and  _510
REMARK  202  A    between atoms: _517  and  _518
REMARK  203  A    between atoms: _523  and  _525
REMARK  204  A    between atoms: _525  and  _526
REMARK  205  A    between atoms: _525  and  _528
REMARK  206  A    between atoms: _528  and  _529
REMARK  207  A    between atoms: _532  and  _534
REMARK  208  A    between atoms: _534  and  _535
REMARK  209  A    between atoms: _534  and  _537
REMARK  210  A    between atoms: _537  and  _538
REMARK  211  A    between atoms: _540  and  _542
REMARK  212  A    between atoms: _542  and  _543
REMARK  213  A    between atoms: _542  and  _545
REMARK  214  A    between atoms: _545  and  _546
REMARK  215  A    between atoms: _551  and  _552
REMARK  216  A    between atoms: _554  and  _556
REMARK  217  A    between atoms: _556  and  _557
REMARK  218  A    between atoms: _556  and  _559
REMARK  219  A    between atoms: _559  and  _560
REMARK  220  A    between atoms: _562  and  _564
REMARK  221  A    between atoms: _564  and  _565
REMARK  222  A    between atoms: _564  and  _567
REMARK  223  A    between atoms: _567  and  _568
REMARK  224  A    between atoms: _571  and  _573
REMARK  225  A    between atoms: _573  and  _574
REMARK  226  A    between atoms: _573  and  _576
REMARK  227  A    between atoms: _576  and  _577
REMARK  228  A    between atoms: _582  and  _584
REMARK  229  A    between atoms: _584  and  _585
REMARK  230  A    between atoms: _584  and  _587
REMARK  231  A    between atoms: _587  and  _588
REMARK  232  A    between atoms: _594  and  _596
REMARK  233  A    between atoms: _596  and  _597
REMARK  234  A    between atoms: _601  and  _602
REMARK  235  A    between atoms: _607  and  _609
REMARK  236  A    between atoms: _609  and  _610
REMARK  237  A    between atoms: _609  and  _612
REMARK  238  A    between atoms: _612  and  _613
REMARK  239  A    between atoms: _618  and  _619
REMARK  240  A    between atoms: _621  and  _623
REMARK  241  A    between atoms: _623  and  _624
REMARK  242  A    between atoms: _623  and  _626
REMARK  243  A    between atoms: _626  and  _627
REMARK  244  A    between atoms: _627  and  _628
REMARK  245  A    between atoms: _628  and  _629
REMARK  246  A    between atoms: _629  and  _630
REMARK  247  A    between atoms: _634  and  _636
REMARK  248  A    between atoms: _636  and  _637
REMARK  249  A    between atoms: _636  and  _639
REMARK  250  A    between atoms: _639  and  _640
REMARK  251  A    between atoms: _640  and  _641
REMARK  252  A    between atoms: _646  and  _648
REMARK  253  A    between atoms: _648  and  _649
REMARK  254  A    between atoms: _648  and  _651
REMARK  255  A    between atoms: _651  and  _652
REMARK  256  A    between atoms: _655  and  _656
REMARK  257  A    between atoms: _661  and  _663
REMARK  258  A    between atoms: _663  and  _664
REMARK  259  A    between atoms: _663  and  _666
REMARK  260  A    between atoms: _666  and  _667
REMARK  261  A    between atoms: _673  and  _675
REMARK  262  A    between atoms: _675  and  _676
REMARK  263  A    between atoms: _678  and  _680
REMARK  264  A    between atoms: _680  and  _681
REMARK  265  A    between atoms: _680  and  _683
REMARK  266  A    between atoms: _683  and  _684
REMARK  267  A    between atoms: _689  and  _690
REMARK  268  A    between atoms: _692  and  _694
REMARK  269  A    between atoms: _694  and  _695
REMARK  270  A    between atoms: _694  and  _697
REMARK  271  A    between atoms: _697  and  _698
REMARK  272  A    between atoms: _701  and  _703
REMARK  273  A    between atoms: _703  and  _704
REMARK  274  A    between atoms: _703  and  _706
REMARK  275  A    between atoms: _706  and  _707
REMARK  276  A    between atoms: _712  and  _713
REMARK                            x       y       z     vdW  Elec       q    Type
REMARK                         _______ _______ _______ _____ _____    ______ ____
ROOT
ATOM      1  CA  ARG A   3      17.492 -17.572  -8.687  0.00  0.00    +0.149 C 
ENDROOT
BRANCH   1   3
ATOM      2  C   VAL A   2      19.239 -16.712  -7.176  0.00  0.00    +0.241 C 
ATOM      3  N   ARG A   3      18.222 -17.540  -7.417  0.00  0.00    -0.297 N 
ATOM      4  H   ARG A   3      17.932 -18.197  -6.665  0.00  0.00    +0.150 HD
ATOM      5  O   VAL A   2      19.693 -15.905  -8.008  0.00  0.00    -0.273 OA
BRANCH   2   6
ATOM      6  CA  VAL A   2      19.826 -16.778  -5.771  0.00  0.00    +0.148 C 
BRANCH   6   8
ATOM      7  C   VAL A   1      21.870 -18.096  -5.943  0.00  0.00    +0.238 C 
ATOM      8  N   VAL A   2      21.278 -16.917  -5.812  0.00  0.00    -0.297 N 
ATOM      9  H   VAL A   2      21.868 -16.064  -5.736  0.00  0.00    +0.150 HD
ATOM     10  O   VAL A   1      21.248 -19.158  -5.999  0.00  0.00    -0.274 OA
BRANCH   7  11
ATOM     11  CA  VAL A   1      23.390 -18.075  -6.019  0.00  0.00    +0.145 C 
BRANCH  11  12
ATOM     12  CB  VAL A   1      23.798 -17.793  -7.485  0.00  0.00    +0.025 C 
ATOM     13  CG2 VAL A   1      25.318 -17.646  -7.601  0.00  0.00    +0.002 C 
ATOM     14  CG1 VAL A   1      23.284 -18.903  -8.410  0.00  0.00    +0.002 C 
ENDBRANCH  11  12
BRANCH  11  15
ATOM     15  N   VAL A   1      23.962 -19.331  -5.538  0.00  0.00    -0.238 NA
ATOM     16  H   VAL A   1      23.649 -20.226  -5.964  0.00  0.00    +0.142 HD
ENDBRANCH  11  15
ENDBRANCH   7  11
ENDBRANCH   6   8
BRANCH   6  17
ATOM     17  CB  VAL A   2      19.427 -15.492  -5.021  0.00  0.00    +0.027 C 
ATOM     18  CG2 VAL A   2      19.817 -15.586  -3.553  0.00  0.00    +0.002 C 
ATOM     19  CG1 VAL A   2      17.918 -15.215  -5.180  0.00  0.00    +0.002 C 
ENDBRANCH   6  17
ENDBRANCH   2   6
ENDBRANCH   1   3
BRANCH   1  20
ATOM     20  C   ARG A   3      15.987 -17.398  -8.392  0.00  0.00    +0.241 C 
ATOM     21  O   ARG A   3      15.602 -17.103  -7.255  0.00  0.00    -0.273 OA
ATOM     22  N   ALA A   4      15.139 -17.536  -9.406  0.00  0.00    -0.297 N 
ATOM     23  H   ALA A   4      15.458 -17.977 -10.292  0.00  0.00    +0.150 HD
BRANCH  22  24
ATOM     24  CA  ALA A   4      13.757 -17.069  -9.281  0.00  0.00    +0.149 C 
ATOM     25  CB  ALA A   4      13.023 -17.265 -10.601  0.00  0.00    +0.031 C 
BRANCH  24  26
ATOM     26  C   ALA A   4      12.958 -17.721  -8.142  0.00  0.00    +0.241 C 
ATOM     27  O   ALA A   4      12.159 -17.055  -7.476  0.00  0.00    -0.273 OA
ATOM     28  N   SER A   5      13.169 -19.013  -7.917  0.00  0.00    -0.295 N 
ATOM     29  H   SER A   5      14.013 -19.472  -8.316  0.00  0.00    +0.150 HD
BRANCH  28  30
ATOM     30  CA  SER A   5      12.234 -19.797  -7.118  0.00  0.00    +0.178 C 
BRANCH  30  31
ATOM     31  C   SER A   5      12.535 -19.813  -5.627  0.00  0.00    +0.243 C 
ATOM     32  O   SER A   5      11.771 -20.386  -4.868  0.00  0.00    -0.273 OA
ATOM     33  N   ASN A   6      13.643 -19.216  -5.205  0.00  0.00    -0.298 N 
ATOM     34  H   ASN A   6      14.200 -18.628  -5.857  0.00  0.00    +0.150 HD
BRANCH  33  35
ATOM     35  CA  ASN A   6      14.079 -19.389  -3.816  0.00  0.00    +0.146 C 
BRANCH  35  36
ATOM     36  C   ASN A   6      15.028 -18.278  -3.406  0.00  0.00    +0.227 C 
ATOM     37  O   ASN A   6      16.171 -18.238  -3.860  0.00  0.00    -0.286 OA
ENDBRANCH  35  36
BRANCH  35  38
ATOM     38  CB  ASN A   6      14.769 -20.754  -3.651  0.00  0.00    +0.112 C 
BRANCH  38  39
ATOM     39  CG  ASN A   6      15.136 -21.069  -2.195  0.00  0.00    +0.222 C 
ATOM     40  OD1 ASN A   6      15.050 -20.216  -1.315  0.00  0.00    -0.275 OA
ATOM     41  ND2 ASN A   6      15.553 -22.311  -1.947  0.00  0.00    -0.329 N 
ATOM     42 HD21 ASN A   6      15.820 -22.587  -0.980  0.00  0.00    +0.145 HD
ATOM     43 HD22 ASN A   6      15.612 -23.004  -2.720  0.00  0.00    +0.145 HD
ENDBRANCH  38  39
ENDBRANCH  35  38
ENDBRANCH  33  35
ENDBRANCH  30  31
BRANCH  30  44
ATOM     44  CB  SER A   5      12.204 -21.253  -7.606  0.00  0.00    +0.166 C 
BRANCH  44  45
ATOM     45  OG  SER A   5      13.486 -21.853  -7.496  0.00  0.00    -0.380 OA
ATOM     46  H   SER A   5      14.134 -21.346  -8.046  0.00  0.00    +0.211 HD
ENDBRANCH  44  45
ENDBRANCH  30  44
ENDBRANCH  28  30
ENDBRANCH  24  26
ENDBRANCH  22  24
ENDBRANCH   1  20
BRANCH   1  47
ATOM     47  CB  ARG A   3      17.818 -18.868  -9.453  0.00  0.00    +0.033 C 
BRANCH  47  48
ATOM     48  CG  ARG A   3      19.364 -19.146  -9.508  0.00  0.00    +0.045 C 
BRANCH  48  49
ATOM     49  CD  ARG A   3      19.730 -20.389 -10.351  0.00  0.00    +0.174 C 
BRANCH  49  50
ATOM     50  NE  ARG A   3      19.428 -20.152 -11.759  0.00  0.00    -0.265 N 
ATOM     51  HE  ARG A   3      19.650 -19.212 -12.144  0.00  0.00    +0.259 HD
ATOM     52  CZ  ARG A   3      18.891 -21.042 -12.589  0.00  0.00    +0.342 C 
ATOM     53  NH2 ARG A   3      18.602 -22.269 -12.173  0.00  0.00    -0.292 N 
ATOM     54 HH21 ARG A   3      18.795 -22.543 -11.189  0.00  0.00    +0.255 HD
ATOM     55 HH22 ARG A   3      18.182 -22.956 -12.831  0.00  0.00    +0.255 HD
ATOM     56  NH1 ARG A   3      18.642 -20.692 -13.844  0.00  0.00    -0.292 N 
ATOM     57 HH11 ARG A   3      18.866 -19.730 -14.170  0.00  0.00    +0.255 HD
ATOM     58 HH12 ARG A   3      18.222 -21.379 -14.502  0.00  0.00    +0.255 HD
ENDBRANCH  49  50
ENDBRANCH  48  49
ENDBRANCH  47  48
ENDBRANCH   1  47
TORSDOF 22
REMARK  Name = ../refined-set-2016/3m8u/3m8u_pocket.pdb
REMARK  276 active torsions:
REMARK  status: ('A' for Active; 'I' for Inactive)
REMARK    1  A    between atoms: _1  and  _3
REMARK    2  A    between atoms: _3  and  _4
REMARK    3  A    between atoms: _3  and  _6
REMARK    4  A    between atoms: _6  and  _7
REMARK    5  A    between atoms: _12  and  _14
REMARK    6  A    between atoms: _14  and  _15
REMARK    7  A    between atoms: _14  and  _17
REMARK    8  A    between atoms: _20  and  _22
REMARK    9  A    between atoms: _22  and  _23
REMARK   10  A    between atoms: _22  and  _25
REMARK   11  A    between atoms: _25  and  _26
REMARK   12  A    between atoms: _28  and  _30
REMARK   13  A    between atoms: _30  and  _31
REMARK   14  A    between atoms: _30  and  _33
REMARK   15  A    between atoms: _33  and  _34
REMARK   16  A    between atoms: _34  and  _35
REMARK   17  A    between atoms: _35  and  _36
REMARK   18  A    between atoms: _45  and  _47
REMARK   19  A    between atoms: _47  and  _48
REMARK   20  A    between atoms: _47  and  _50
REMARK   21  A    between atoms: _50  and  _51
REMARK   22  A    between atoms: _54  and  _56
REMARK   23  A    between atoms: _56  and  _57
REMARK   24  A    between atoms: _56  and  _59
REMARK   25  A    between atoms: _62  and  _64
REMARK   26  A    between atoms: _64  and  _65
REMARK   27  A    between atoms: _64  and  _67
REMARK   28  A    between atoms: _67  and  _68
REMARK   29  A    between atoms: _68  and  _69
REMARK   30  A    between atoms: _71  and  _73
REMARK   31  A    between atoms: _73  and  _74
REMARK   32  A    between atoms: _73  and  _76
REMARK   33  A    between atoms: _76  and  _77
REMARK   34  A    between atoms: _80  and  _82
REMARK   35  A    between atoms: _82  and  _83
REMARK   36  A    between atoms: _85  and  _87
REMARK   37  A    between atoms: _87  and  _88
REMARK   38  A    between atoms: _87  and  _90
REMARK   39  A    between atoms: _90  and  _91
REMARK   40  A    between atoms: _94  and  _96
REMARK   41  A    between atoms: _96  and  _97
REMARK   42  A    between atoms: _96  and  _99
REMARK   43  A    between atoms: _99  and  _100
REMARK   44  A    between atoms: _102  and  _104
REMARK   45  A    between atoms: _104  and  _105
REMARK   46  A    between atoms: _104  and  _107
REMARK   47  A    between atoms: _107  and  _108
REMARK   48  A    between atoms: _113  and  _114
REMARK   49  A    between atoms: _116  and  _118
REMARK   50  A    between atoms: _118  and  _119
REMARK   51  A    between atoms: _118  and  _121
REMARK   52  A    between atoms: _121  and  _122
REMARK   53  A    between atoms: _127  and  _129
REMARK   54  A    between atoms: _129  and  _130
REMARK   55  A    between atoms: _133  and  _135
REMARK   56  A    between atoms: _135  and  _136
REMARK   57  A    between atoms: _135  and  _138
REMARK   58  A    between atoms: _138  and  _139
REMARK   59  A    between atoms: _139  and  _140
REMARK   60  A    between atoms: _145  and  _147
REMARK   61  A    between atoms: _147  and  _148
REMARK   62  A    between atoms: _147  and  _150
REMARK   63  A    between atoms: _150  and  _151
REMARK   64  A    between atoms: _156  and  _157
REMARK   65  A    between atoms: _159  and  _161
REMARK   66  A    between atoms: _161  and  _162
REMARK   67  A    between atoms: _161  and  _164
REMARK   68  A    between atoms: _164  and  _165
REMARK   69  A    between atoms: _165  and  _166
REMARK   70  A    between atoms: _168  and  _170
REMARK   71  A    between atoms: _170  and  _171
REMARK   72  A    between atoms: _170  and  _173
REMARK   73  A    between atoms: _173  and  _174
REMARK   74  A    between atoms: _177  and  _179
REMARK   75  A    between atoms: _179  and  _180
REMARK   76  A    between atoms: _179  and  _182
REMARK   77  A    between atoms: _182  and  _183
REMARK   78  A    between atoms: _186  and  _188
REMARK   79  A    between atoms: _188  and  _189
REMARK   80  A    between atoms: _188  and  _191
REMARK   81  A    between atoms: _191  and  _192
REMARK   82  A    between atoms: _195  and  _197
REMARK   83  A    between atoms: _197  and  _198
REMARK   84  A    between atoms: _197  and  _200
REMARK   85  A    between atoms: _200  and  _201
REMARK   86  A    between atoms: _204  and  _206
REMARK   87  A    between atoms: _206  and  _207
REMARK   88  A    between atoms: _206  and  _209
REMARK   89  A    between atoms: _209  and  _210
REMARK   90  A    between atoms: _217  and  _218
REMARK   91  A    between atoms: _223  and  _225
REMARK   92  A    between atoms: _225  and  _226
REMARK   93  A    between atoms: _225  and  _228
REMARK   94  A    between atoms: _228  and  _229
REMARK   95  A    between atoms: _234  and  _236
REMARK   96  A    between atoms: _236  and  _237
REMARK   97  A    between atoms: _236  and  _239
REMARK   98  A    between atoms: _239  and  _240
REMARK   99  A    between atoms: _242  and  _244
REMARK  100  A    between atoms: _244  and  _245
REMARK  101  A    between atoms: _244  and  _247
REMARK  102  A    between atoms: _247  and  _248
REMARK  103  A    between atoms: _248  and  _249
REMARK  104  A    between atoms: _254  and  _256
REMARK  105  A    between atoms: _256  and  _257
REMARK  106  A    between atoms: _256  and  _259
REMARK  107  A    between atoms: _259  and  _260
REMARK  108  A    between atoms: _262  and  _264
REMARK  109  A    between atoms: _264  and  _265
REMARK  110  A    between atoms: _267  and  _269
REMARK  111  A    between atoms: _269  and  _270
REMARK  112  A    between atoms: _269  and  _272
REMARK  113  A    between atoms: _272  and  _273
REMARK  114  A    between atoms: _276  and  _278
REMARK  115  A    between atoms: _278  and  _279
REMARK  116  A    between atoms: _278  and  _281
REMARK  117  A    between atoms: _281  and  _282
REMARK  118  A    between atoms: _287  and  _289
REMARK  119  A    between atoms: _289  and  _290
REMARK  120  A    between atoms: _289  and  _292
REMARK  121  A    between atoms: _292  and  _293
REMARK  122  A    between atoms: _296  and  _298
REMARK  123  A    between atoms: _298  and  _299
REMARK  124  A    between atoms: _302  and  _304
REMARK  125  A    between atoms: _304  and  _305
REMARK  126  A    between atoms: _304  and  _307
REMARK  127  A    between atoms: _307  and  _308
REMARK  128  A    between atoms: _313  and  _314
REMARK  129  A    between atoms: _316  and  _318
REMARK  130  A    between atoms: _318  and  _319
REMARK  131  A    between atoms: _318  and  _321
REMARK  132  A    between atoms: _321  and  _322
REMARK  133  A    between atoms: _327  and  _328
REMARK  134  A    between atoms: _330  and  _332
REMARK  135  A    between atoms: _332  and  _333
REMARK  136  A    between atoms: _332  and  _335
REMARK  137  A    between atoms: _335  and  _336
REMARK  138  A    between atoms: _336  and  _337
REMARK  139  A    between atoms: _342  and  _344
REMARK  140  A    between atoms: _344  and  _345
REMARK  141  A    between atoms: _344  and  _347
REMARK  142  A    between atoms: _350  and  _352
REMARK  143  A    between atoms: _352  and  _353
REMARK  144  A    between atoms: _352  and  _355
REMARK  145  A    between atoms: _358  and  _360
REMARK  146  A    between atoms: _360  and  _361
REMARK  147  A    between atoms: _360  and  _363
REMARK  148  A    between atoms: _363  and  _364
REMARK  149  A    between atoms: _364  and  _365
REMARK  150  A    between atoms: _365  and  _366
REMARK  151  A    between atoms: _375  and  _377
REMARK  152  A    between atoms: _377  and  _378
REMARK  153  A    between atoms: _381  and  _383
REMARK  154  A    between atoms: _383  and  _384
REMARK  155  A    between atoms: _383  and  _386
REMARK  156  A    between atoms: _386  and  _387
REMARK  157  A    between atoms: _389  and  _391
REMARK  158  A    between atoms: _391  and  _392
REMARK  159  A    between atoms: _391  and  _394
REMARK  160  A    between atoms: _394  and  _395
REMARK  161  A    between atoms: _400  and  _402
REMARK  162  A    between atoms: _402  and  _403
REMARK  163  A    between atoms: _402  and  _405
REMARK  164  A    between atoms: _405  and  _406
REMARK  165  A    between atoms: _416  and  _418
REMARK  166  A    between atoms: _418  and  _419
REMARK  167  A    between atoms: _418  and  _421
REMARK  168  A    between atoms: _421  and  _422
REMARK  169  A    between atoms: _425  and  _427
REMARK  170  A    between atoms: _427  and  _428
REMARK  171  A    between atoms: _427  and  _430
REMARK  172  A    between atoms: _430  and  _431
REMARK  173  A    between atoms: _436  and  _437
REMARK  174  A    between atoms: _439  and  _441
REMARK  175  A    between atoms: _441  and  _442
REMARK  176  A    between atoms: _444  and  _446
REMARK  177  A    between atoms: _446  and  _447
REMARK  178  A    between atoms: _446  and  _449
REMARK  179  A    between atoms: _449  and  _450
REMARK  180  A    between atoms: _460  and  _462
REMARK  181  A    between atoms: _462  and  _463
REMARK  182  A    between atoms: _462  and  _465
REMARK  183  A    between atoms: _465  and  _466
REMARK  184  A    between atoms: _468  and  _470
REMARK  185  A    between atoms: _470  and  _471
REMARK  186  A    between atoms: _473  and  _475
REMARK  187  A    between atoms: _475  and  _476
REMARK  188  A    between atoms: _475  and  _478
REMARK  189  A    between atoms: _478  and  _479
REMARK  190  A    between atoms: _482  and  _484
REMARK  191  A    between atoms: _484  and  _485
REMARK  192  A    between atoms: _484  and  _487
REMARK  193  A    between atoms: _487  and  _488
REMARK  194  A    between atoms: _493  and  _495
REMARK  195  A    between atoms: _495  and  _496
REMARK  196  A    between atoms: _495  and  _498
REMARK  197  A    between atoms: _498  and  _499
REMARK  198  A    between atoms: _504  and  _506
REMARK  199  A    between atoms: _506  and  _507
REMARK  200  A    between atoms: _506  and  _509
REMARK  201  A    between atoms: _509  and  _510
REMARK  202  A    between atoms: _517  and  _518
REMARK  203  A    between atoms: _523  and  _525
REMARK  204  A    between atoms: _525  and  _526
REMARK  205  A    between atoms: _525  and  _528
REMARK  206  A    between atoms: _528  and  _529
REMARK  207  A    between atoms: _532  and  _534
REMARK  208  A    between atoms: _534  and  _535
REMARK  209  A    between atoms: _534  and  _537
REMARK  210  A    between atoms: _537  and  _538
REMARK  211  A    between atoms: _540  and  _542
REMARK  212  A    between atoms: _542  and  _543
REMARK  213  A    between atoms: _542  and  _545
REMARK  214  A    between atoms: _545  and  _546
REMARK  215  A    between atoms: _551  and  _552
REMARK  216  A    between atoms: _554  and  _556
REMARK  217  A    between atoms: _556  and  _557
REMARK  218  A    between atoms: _556  and  _559
REMARK  219  A    between atoms: _559  and  _560
REMARK  220  A    between atoms: _562  and  _564
REMARK  221  A    between atoms: _564  and  _565
REMARK  222  A    between atoms: _564  and  _567
REMARK  223  A    between atoms: _567  and  _568
REMARK  224  A    between atoms: _571  and  _573
REMARK  225  A    between atoms: _573  and  _574
REMARK  226  A    between atoms: _573  and  _576
REMARK  227  A    between atoms: _576  and  _577
REMARK  228  A    between atoms: _582  and  _584
REMARK  229  A    between atoms: _584  and  _585
REMARK  230  A    between atoms: _584  and  _587
REMARK  231  A    between atoms: _587  and  _588
REMARK  232  A    between atoms: _594  and  _596
REMARK  233  A    between atoms: _596  and  _597
REMARK  234  A    between atoms: _601  and  _602
REMARK  235  A    between atoms: _607  and  _609
REMARK  236  A    between atoms: _609  and  _610
REMARK  237  A    between atoms: _609  and  _612
REMARK  238  A    between atoms: _612  and  _613
REMARK  239  A    between atoms: _618  and  _619
REMARK  240  A    between atoms: _621  and  _623
REMARK  241  A    between atoms: _623  and  _624
REMARK  242  A    between atoms: _623  and  _626
REMARK  243  A    between atoms: _626  and  _627
REMARK  244  A    between atoms: _627  and  _628
REMARK  245  A    between atoms: _628  and  _629
REMARK  246  A    between atoms: _629  and  _630
REMARK  247  A    between atoms: _634  and  _636
REMARK  248  A    between atoms: _636  and  _637
REMARK  249  A    between atoms: _636  and  _639
REMARK  250  A    between atoms: _639  and  _640
REMARK  251  A    between atoms: _640  and  _641
REMARK  252  A    between atoms: _646  and  _648
REMARK  253  A    between atoms: _648  and  _649
REMARK  254  A    between atoms: _648  and  _651
REMARK  255  A    between atoms: _651  and  _652
REMARK  256  A    between atoms: _655  and  _656
REMARK  257  A    between atoms: _661  and  _663
REMARK  258  A    between atoms: _663  and  _664
REMARK  259  A    between atoms: _663  and  _666
REMARK  260  A    between atoms: _666  and  _667
REMARK  261  A    between atoms: _673  and  _675
REMARK  262  A    between atoms: _675  and  _676
REMARK  263  A    between atoms: _678  and  _680
REMARK  264  A    between atoms: _680  and  _681
REMARK  265  A    between atoms: _680  and  _683
REMARK  266  A    between atoms: _683  and  _684
REMARK  267  A    between atoms: _689  and  _690
REMARK  268  A    between atoms: _692  and  _694
REMARK  269  A    between atoms: _694  and  _695
REMARK  270  A    between atoms: _694  and  _697
REMARK  271  A    between atoms: _697  and  _698
REMARK  272  A    between atoms: _701  and  _703
REMARK  273  A    between atoms: _703  and  _704
REMARK  274  A    between atoms: _703  and  _706
REMARK  275  A    between atoms: _706  and  _707
REMARK  276  A    between atoms: _712  and  _713
REMARK                            x       y       z     vdW  Elec       q    Type
REMARK                         _______ _______ _______ _____ _____    ______ ____
ROOT
ATOM      1  CG  TRP A   1      26.000 -20.892 -11.026  0.00  0.00    -0.002 A 
ATOM      2  CD2 TRP A   1      24.768 -21.593 -10.783  0.00  0.00    +0.013 A 
ATOM      3  CE3 TRP A   1      24.229 -22.260  -9.677  0.00  0.00    +0.001 A 
ATOM      4  CZ3 TRP A   1      22.968 -22.839  -9.797  0.00  0.00    +0.000 A 
ATOM      5  CH2 TRP A   1      22.243 -22.760 -11.000  0.00  0.00    +0.001 A 
ATOM      6  CZ2 TRP A   1      22.747 -22.117 -12.095  0.00  0.00    +0.017 A 
ATOM      7  CE2 TRP A   1      24.014 -21.533 -11.976  0.00  0.00    +0.056 A 
ATOM      8  NE1 TRP A   1      24.752 -20.834 -12.894  0.00  0.00    -0.352 N 
ATOM      9  HE1 TRP A   1      24.460 -20.624 -13.870  0.00  0.00    +0.166 HD
ATOM     10  CD1 TRP A   1      25.942 -20.455 -12.317  0.00  0.00    +0.068 A 
ENDROOT
BRANCH   1  11
ATOM     11  CB  TRP A   1      27.128 -20.669 -10.057  0.00  0.00    +0.053 C 
BRANCH  11  12
ATOM     12  CA  TRP A   1      27.799 -21.943  -9.535  0.00  0.00    +0.137 C 
BRANCH  12  13
ATOM     13  N   TRP A   1      28.986 -21.591  -8.751  0.00  0.00    -0.239 NA
ATOM     14  H   TRP A   1      29.203 -20.586  -8.595  0.00  0.00    +0.142 HD
ENDBRANCH  12  13
BRANCH  12  15
ATOM     15  C   TRP A   1      28.047 -22.923 -10.684  0.00  0.00    +0.224 C 
ATOM     16  O   TRP A   1      27.371 -23.936 -10.770  0.00  0.00    -0.287 OA
ENDBRANCH  12  15
ENDBRANCH  11  12
ENDBRANCH   1  11
TORSDOF 4
REMARK  Name = ../refined-set-2016/3m8u/3m8u_pocket.pdb
REMARK  276 active torsions:
REMARK  status: ('A' for Active; 'I' for Inactive)
REMARK    1  A    between atoms: _1  and  _3
REMARK    2  A    between atoms: _3  and  _4
REMARK    3  A    between atoms: _3  and  _6
REMARK    4  A    between atoms: _6  and  _7
REMARK    5  A    between atoms: _12  and  _14
REMARK    6  A    between atoms: _14  and  _15
REMARK    7  A    between atoms: _14  and  _17
REMARK    8  A    between atoms: _20  and  _22
REMARK    9  A    between atoms: _22  and  _23
REMARK   10  A    between atoms: _22  and  _25
REMARK   11  A    between atoms: _25  and  _26
REMARK   12  A    between atoms: _28  and  _30
REMARK   13  A    between atoms: _30  and  _31
REMARK   14  A    between atoms: _30  and  _33
REMARK   15  A    between atoms: _33  and  _34
REMARK   16  A    between atoms: _34  and  _35
REMARK   17  A    between atoms: _35  and  _36
REMARK   18  A    between atoms: _45  and  _47
REMARK   19  A    between atoms: _47  and  _48
REMARK   20  A    between atoms: _47  and  _50
REMARK   21  A    between atoms: _50  and  _51
REMARK   22  A    between atoms: _54  and  _56
REMARK   23  A    between atoms: _56  and  _57
REMARK   24  A    between atoms: _56  and  _59
REMARK   25  A    between atoms: _62  and  _64
REMARK   26  A    between atoms: _64  and  _65
REMARK   27  A    between atoms: _64  and  _67
REMARK   28  A    between atoms: _67  and  _68
REMARK   29  A    between atoms: _68  and  _69
REMARK   30  A    between atoms: _71  and  _73
REMARK   31  A    between atoms: _73  and  _74
REMARK   32  A    between atoms: _73  and  _76
REMARK   33  A    between atoms: _76  and  _77
REMARK   34  A    between atoms: _80  and  _82
REMARK   35  A    between atoms: _82  and  _83
REMARK   36  A    between atoms: _85  and  _87
REMARK   37  A    between atoms: _87  and  _88
REMARK   38  A    between atoms: _87  and  _90
REMARK   39  A    between atoms: _90  and  _91
REMARK   40  A    between atoms: _94  and  _96
REMARK   41  A    between atoms: _96  and  _97
REMARK   42  A    between atoms: _96  and  _99
REMARK   43  A    between atoms: _99  and  _100
REMARK   44  A    between atoms: _102  and  _104
REMARK   45  A    between atoms: _104  and  _105
REMARK   46  A    between atoms: _104  and  _107
REMARK   47  A    between atoms: _107  and  _108
REMARK   48  A    between atoms: _113  and  _114
REMARK   49  A    between atoms: _116  and  _118
REMARK   50  A    between atoms: _118  and  _119
REMARK   51  A    between atoms: _118  and  _121
REMARK   52  A    between atoms: _121  and  _122
REMARK   53  A    between atoms: _127  and  _129
REMARK   54  A    between atoms: _129  and  _130
REMARK   55  A    between atoms: _133  and  _135
REMARK   56  A    between atoms: _135  and  _136
REMARK   57  A    between atoms: _135  and  _138
REMARK   58  A    between atoms: _138  and  _139
REMARK   59  A    between atoms: _139  and  _140
REMARK   60  A    between atoms: _145  and  _147
REMARK   61  A    between atoms: _147  and  _148
REMARK   62  A    between atoms: _147  and  _150
REMARK   63  A    between atoms: _150  and  _151
REMARK   64  A    between atoms: _156  and  _157
REMARK   65  A    between atoms: _159  and  _161
REMARK   66  A    between atoms: _161  and  _162
REMARK   67  A    between atoms: _161  and  _164
REMARK   68  A    between atoms: _164  and  _165
REMARK   69  A    between atoms: _165  and  _166
REMARK   70  A    between atoms: _168  and  _170
REMARK   71  A    between atoms: _170  and  _171
REMARK   72  A    between atoms: _170  and  _173
REMARK   73  A    between atoms: _173  and  _174
REMARK   74  A    between atoms: _177  and  _179
REMARK   75  A    between atoms: _179  and  _180
REMARK   76  A    between atoms: _179  and  _182
REMARK   77  A    between atoms: _182  and  _183
REMARK   78  A    between atoms: _186  and  _188
REMARK   79  A    between atoms: _188  and  _189
REMARK   80  A    between atoms: _188  and  _191
REMARK   81  A    between atoms: _191  and  _192
REMARK   82  A    between atoms: _195  and  _197
REMARK   83  A    between atoms: _197  and  _198
REMARK   84  A    between atoms: _197  and  _200
REMARK   85  A    between atoms: _200  and  _201
REMARK   86  A    between atoms: _204  and  _206
REMARK   87  A    between atoms: _206  and  _207
REMARK   88  A    between atoms: _206  and  _209
REMARK   89  A    between atoms: _209  and  _210
REMARK   90  A    between atoms: _217  and  _218
REMARK   91  A    between atoms: _223  and  _225
REMARK   92  A    between atoms: _225  and  _226
REMARK   93  A    between atoms: _225  and  _228
REMARK   94  A    between atoms: _228  and  _229
REMARK   95  A    between atoms: _234  and  _236
REMARK   96  A    between atoms: _236  and  _237
REMARK   97  A    between atoms: _236  and  _239
REMARK   98  A    between atoms: _239  and  _240
REMARK   99  A    between atoms: _242  and  _244
REMARK  100  A    between atoms: _244  and  _245
REMARK  101  A    between atoms: _244  and  _247
REMARK  102  A    between atoms: _247  and  _248
REMARK  103  A    between atoms: _248  and  _249
REMARK  104  A    between atoms: _254  and  _256
REMARK  105  A    between atoms: _256  and  _257
REMARK  106  A    between atoms: _256  and  _259
REMARK  107  A    between atoms: _259  and  _260
REMARK  108  A    between atoms: _262  and  _264
REMARK  109  A    between atoms: _264  and  _265
REMARK  110  A    between atoms: _267  and  _269
REMARK  111  A    between atoms: _269  and  _270
REMARK  112  A    between atoms: _269  and  _272
REMARK  113  A    between atoms: _272  and  _273
REMARK  114  A    between atoms: _276  and  _278
REMARK  115  A    between atoms: _278  and  _279
REMARK  116  A    between atoms: _278  and  _281
REMARK  117  A    between atoms: _281  and  _282
REMARK  118  A    between atoms: _287  and  _289
REMARK  119  A    between atoms: _289  and  _290
REMARK  120  A    between atoms: _289  and  _292
REMARK  121  A    between atoms: _292  and  _293
REMARK  122  A    between atoms: _296  and  _298
REMARK  123  A    between atoms: _298  and  _299
REMARK  124  A    between atoms: _302  and  _304
REMARK  125  A    between atoms: _304  and  _305
REMARK  126  A    between atoms: _304  and  _307
REMARK  127  A    between atoms: _307  and  _308
REMARK  128  A    between atoms: _313  and  _314
REMARK  129  A    between atoms: _316  and  _318
REMARK  130  A    between atoms: _318  and  _319
REMARK  131  A    between atoms: _318  and  _321
REMARK  132  A    between atoms: _321  and  _322
REMARK  133  A    between atoms: _327  and  _328
REMARK  134  A    between atoms: _330  and  _332
REMARK  135  A    between atoms: _332  and  _333
REMARK  136  A    between atoms: _332  and  _335
REMARK  137  A    between atoms: _335  and  _336
REMARK  138  A    between atoms: _336  and  _337
REMARK  139  A    between atoms: _342  and  _344
REMARK  140  A    between atoms: _344  and  _345
REMARK  141  A    between atoms: _344  and  _347
REMARK  142  A    between atoms: _350  and  _352
REMARK  143  A    between atoms: _352  and  _353
REMARK  144  A    between atoms: _352  and  _355
REMARK  145  A    between atoms: _358  and  _360
REMARK  146  A    between atoms: _360  and  _361
REMARK  147  A    between atoms: _360  and  _363
REMARK  148  A    between atoms: _363  and  _364
REMARK  149  A    between atoms: _364  and  _365
REMARK  150  A    between atoms: _365  and  _366
REMARK  151  A    between atoms: _375  and  _377
REMARK  152  A    between atoms: _377  and  _378
REMARK  153  A    between atoms: _381  and  _383
REMARK  154  A    between atoms: _383  and  _384
REMARK  155  A    between atoms: _383  and  _386
REMARK  156  A    between atoms: _386  and  _387
REMARK  157  A    between atoms: _389  and  _391
REMARK  158  A    between atoms: _391  and  _392
REMARK  159  A    between atoms: _391  and  _394
REMARK  160  A    between atoms: _394  and  _395
REMARK  161  A    between atoms: _400  and  _402
REMARK  162  A    between atoms: _402  and  _403
REMARK  163  A    between atoms: _402  and  _405
REMARK  164  A    between atoms: _405  and  _406
REMARK  165  A    between atoms: _416  and  _418
REMARK  166  A    between atoms: _418  and  _419
REMARK  167  A    between atoms: _418  and  _421
REMARK  168  A    between atoms: _421  and  _422
REMARK  169  A    between atoms: _425  and  _427
REMARK  170  A    between atoms: _427  and  _428
REMARK  171  A    between atoms: _427  and  _430
REMARK  172  A    between atoms: _430  and  _431
REMARK  173  A    between atoms: _436  and  _437
REMARK  174  A    between atoms: _439  and  _441
REMARK  175  A    between atoms: _441  and  _442
REMARK  176  A    between atoms: _444  and  _446
REMARK  177  A    between atoms: _446  and  _447
REMARK  178  A    between atoms: _446  and  _449
REMARK  179  A    between atoms: _449  and  _450
REMARK  180  A    between atoms: _460  and  _462
REMARK  181  A    between atoms: _462  and  _463
REMARK  182  A    between atoms: _462  and  _465
REMARK  183  A    between atoms: _465  and  _466
REMARK  184  A    between atoms: _468  and  _470
REMARK  185  A    between atoms: _470  and  _471
REMARK  186  A    between atoms: _473  and  _475
REMARK  187  A    between atoms: _475  and  _476
REMARK  188  A    between atoms: _475  and  _478
REMARK  189  A    between atoms: _478  and  _479
REMARK  190  A    between atoms: _482  and  _484
REMARK  191  A    between atoms: _484  and  _485
REMARK  192  A    between atoms: _484  and  _487
REMARK  193  A    between atoms: _487  and  _488
REMARK  194  A    between atoms: _493  and  _495
REMARK  195  A    between atoms: _495  and  _496
REMARK  196  A    between atoms: _495  and  _498
REMARK  197  A    between atoms: _498  and  _499
REMARK  198  A    between atoms: _504  and  _506
REMARK  199  A    between atoms: _506  and  _507
REMARK  200  A    between atoms: _506  and  _509
REMARK  201  A    between atoms: _509  and  _510
REMARK  202  A    between atoms: _517  and  _518
REMARK  203  A    between atoms: _523  and  _525
REMARK  204  A    between atoms: _525  and  _526
REMARK  205  A    between atoms: _525  and  _528
REMARK  206  A    between atoms: _528  and  _529
REMARK  207  A    between atoms: _532  and  _534
REMARK  208  A    between atoms: _534  and  _535
REMARK  209  A    between atoms: _534  and  _537
REMARK  210  A    between atoms: _537  and  _538
REMARK  211  A    between atoms: _540  and  _542
REMARK  212  A    between atoms: _542  and  _543
REMARK  213  A    between atoms: _542  and  _545
REMARK  214  A    between atoms: _545  and  _546
REMARK  215  A    between atoms: _551  and  _552
REMARK  216  A    between atoms: _554  and  _556
REMARK  217  A    between atoms: _556  and  _557
REMARK  218  A    between atoms: _556  and  _559
REMARK  219  A    between atoms: _559  and  _560
REMARK  220  A    between atoms: _562  and  _564
REMARK  221  A    between atoms: _564  and  _565
REMARK  222  A    between atoms: _564  and  _567
REMARK  223  A    between atoms: _567  and  _568
REMARK  224  A    between atoms: _571  and  _573
REMARK  225  A    between atoms: _573  and  _574
REMARK  226  A    between atoms: _573  and  _576
REMARK  227  A    between atoms: _576  and  _577
REMARK  228  A    between atoms: _582  and  _584
REMARK  229  A    between atoms: _584  and  _585
REMARK  230  A    between atoms: _584  and  _587
REMARK  231  A    between atoms: _587  and  _588
REMARK  232  A    between atoms: _594  and  _596
REMARK  233  A    between atoms: _596  and  _597
REMARK  234  A    between atoms: _601  and  _602
REMARK  235  A    between atoms: _607  and  _609
REMARK  236  A    between atoms: _609  and  _610
REMARK  237  A    between atoms: _609  and  _612
REMARK  238  A    between atoms: _612  and  _613
REMARK  239  A    between atoms: _618  and  _619
REMARK  240  A    between atoms: _621  and  _623
REMARK  241  A    between atoms: _623  and  _624
REMARK  242  A    between atoms: _623  and  _626
REMARK  243  A    between atoms: _626  and  _627
REMARK  244  A    between atoms: _627  and  _628
REMARK  245  A    between atoms: _628  and  _629
REMARK  246  A    between atoms: _629  and  _630
REMARK  247  A    between atoms: _634  and  _636
REMARK  248  A    between atoms: _636  and  _637
REMARK  249  A    between atoms: _636  and  _639
REMARK  250  A    between atoms: _639  and  _640
REMARK  251  A    between atoms: _640  and  _641
REMARK  252  A    between atoms: _646  and  _648
REMARK  253  A    between atoms: _648  and  _649
REMARK  254  A    between atoms: _648  and  _651
REMARK  255  A    between atoms: _651  and  _652
REMARK  256  A    between atoms: _655  and  _656
REMARK  257  A    between atoms: _661  and  _663
REMARK  258  A    between atoms: _663  and  _664
REMARK  259  A    between atoms: _663  and  _666
REMARK  260  A    between atoms: _666  and  _667
REMARK  261  A    between atoms: _673  and  _675
REMARK  262  A    between atoms: _675  and  _676
REMARK  263  A    between atoms: _678  and  _680
REMARK  264  A    between atoms: _680  and  _681
REMARK  265  A    between atoms: _680  and  _683
REMARK  266  A    between atoms: _683  and  _684
REMARK  267  A    between atoms: _689  and  _690
REMARK  268  A    between atoms: _692  and  _694
REMARK  269  A    between atoms: _694  and  _695
REMARK  270  A    between atoms: _694  and  _697
REMARK  271  A    between atoms: _697  and  _698
REMARK  272  A    between atoms: _701  and  _703
REMARK  273  A    between atoms: _703  and  _704
REMARK  274  A    between atoms: _703  and  _706
REMARK  275  A    between atoms: _706  and  _707
REMARK  276  A    between atoms: _712  and  _713
REMARK                            x       y       z     vdW  Elec       q    Type
REMARK                         _______ _______ _______ _____ _____    ______ ____
ROOT
ATOM      1  CA  ILE A   1      25.850 -27.605 -11.590  0.00  0.00    +0.133 C 
ENDROOT
BRANCH   1   2
ATOM      2  N   ILE A   1      26.734 -26.960 -10.619  0.00  0.00    -0.239 NA
ATOM      3  H   ILE A   1      27.099 -26.006 -10.812  0.00  0.00    +0.142 HD
ENDBRANCH   1   2
BRANCH   1   4
ATOM      4  C   ILE A   1      26.544 -28.750 -12.328  0.00  0.00    +0.224 C 
ATOM      5  O   ILE A   1      25.955 -29.815 -12.528  0.00  0.00    -0.287 OA
ENDBRANCH   1   4
BRANCH   1   6
ATOM      6  CB  ILE A   1      25.293 -26.579 -12.595  0.00  0.00    +0.023 C 
ATOM      7  CG2 ILE A   1      24.551 -27.282 -13.723  0.00  0.00    +0.002 C 
BRANCH   6   8
ATOM      8  CG1 ILE A   1      24.353 -25.608 -11.878  0.00  0.00    +0.002 C 
ATOM      9  CD1 ILE A   1      23.193 -26.287 -11.135  0.00  0.00    +0.000 C 
ENDBRANCH   6   8
ENDBRANCH   1   6
TORSDOF 4
REMARK  Name = ../refined-set-2016/3m8u/3m8u_pocket.pdb
REMARK  276 active torsions:
REMARK  status: ('A' for Active; 'I' for Inactive)
REMARK    1  A    between atoms: _1  and  _3
REMARK    2  A    between atoms: _3  and  _4
REMARK    3  A    between atoms: _3  and  _6
REMARK    4  A    between atoms: _6  and  _7
REMARK    5  A    between atoms: _12  and  _14
REMARK    6  A    between atoms: _14  and  _15
REMARK    7  A    between atoms: _14  and  _17
REMARK    8  A    between atoms: _20  and  _22
REMARK    9  A    between atoms: _22  and  _23
REMARK   10  A    between atoms: _22  and  _25
REMARK   11  A    between atoms: _25  and  _26
REMARK   12  A    between atoms: _28  and  _30
REMARK   13  A    between atoms: _30  and  _31
REMARK   14  A    between atoms: _30  and  _33
REMARK   15  A    between atoms: _33  and  _34
REMARK   16  A    between atoms: _34  and  _35
REMARK   17  A    between atoms: _35  and  _36
REMARK   18  A    between atoms: _45  and  _47
REMARK   19  A    between atoms: _47  and  _48
REMARK   20  A    between atoms: _47  and  _50
REMARK   21  A    between atoms: _50  and  _51
REMARK   22  A    between atoms: _54  and  _56
REMARK   23  A    between atoms: _56  and  _57
REMARK   24  A    between atoms: _56  and  _59
REMARK   25  A    between atoms: _62  and  _64
REMARK   26  A    between atoms: _64  and  _65
REMARK   27  A    between atoms: _64  and  _67
REMARK   28  A    between atoms: _67  and  _68
REMARK   29  A    between atoms: _68  and  _69
REMARK   30  A    between atoms: _71  and  _73
REMARK   31  A    between atoms: _73  and  _74
REMARK   32  A    between atoms: _73  and  _76
REMARK   33  A    between atoms: _76  and  _77
REMARK   34  A    between atoms: _80  and  _82
REMARK   35  A    between atoms: _82  and  _83
REMARK   36  A    between atoms: _85  and  _87
REMARK   37  A    between atoms: _87  and  _88
REMARK   38  A    between atoms: _87  and  _90
REMARK   39  A    between atoms: _90  and  _91
REMARK   40  A    between atoms: _94  and  _96
REMARK   41  A    between atoms: _96  and  _97
REMARK   42  A    between atoms: _96  and  _99
REMARK   43  A    between atoms: _99  and  _100
REMARK   44  A    between atoms: _102  and  _104
REMARK   45  A    between atoms: _104  and  _105
REMARK   46  A    between atoms: _104  and  _107
REMARK   47  A    between atoms: _107  and  _108
REMARK   48  A    between atoms: _113  and  _114
REMARK   49  A    between atoms: _116  and  _118
REMARK   50  A    between atoms: _118  and  _119
REMARK   51  A    between atoms: _118  and  _121
REMARK   52  A    between atoms: _121  and  _122
REMARK   53  A    between atoms: _127  and  _129
REMARK   54  A    between atoms: _129  and  _130
REMARK   55  A    between atoms: _133  and  _135
REMARK   56  A    between atoms: _135  and  _136
REMARK   57  A    between atoms: _135  and  _138
REMARK   58  A    between atoms: _138  and  _139
REMARK   59  A    between atoms: _139  and  _140
REMARK   60  A    between atoms: _145  and  _147
REMARK   61  A    between atoms: _147  and  _148
REMARK   62  A    between atoms: _147  and  _150
REMARK   63  A    between atoms: _150  and  _151
REMARK   64  A    between atoms: _156  and  _157
REMARK   65  A    between atoms: _159  and  _161
REMARK   66  A    between atoms: _161  and  _162
REMARK   67  A    between atoms: _161  and  _164
REMARK   68  A    between atoms: _164  and  _165
REMARK   69  A    between atoms: _165  and  _166
REMARK   70  A    between atoms: _168  and  _170
REMARK   71  A    between atoms: _170  and  _171
REMARK   72  A    between atoms: _170  and  _173
REMARK   73  A    between atoms: _173  and  _174
REMARK   74  A    between atoms: _177  and  _179
REMARK   75  A    between atoms: _179  and  _180
REMARK   76  A    between atoms: _179  and  _182
REMARK   77  A    between atoms: _182  and  _183
REMARK   78  A    between atoms: _186  and  _188
REMARK   79  A    between atoms: _188  and  _189
REMARK   80  A    between atoms: _188  and  _191
REMARK   81  A    between atoms: _191  and  _192
REMARK   82  A    between atoms: _195  and  _197
REMARK   83  A    between atoms: _197  and  _198
REMARK   84  A    between atoms: _197  and  _200
REMARK   85  A    between atoms: _200  and  _201
REMARK   86  A    between atoms: _204  and  _206
REMARK   87  A    between atoms: _206  and  _207
REMARK   88  A    between atoms: _206  and  _209
REMARK   89  A    between atoms: _209  and  _210
REMARK   90  A    between atoms: _217  and  _218
REMARK   91  A    between atoms: _223  and  _225
REMARK   92  A    between atoms: _225  and  _226
REMARK   93  A    between atoms: _225  and  _228
REMARK   94  A    between atoms: _228  and  _229
REMARK   95  A    between atoms: _234  and  _236
REMARK   96  A    between atoms: _236  and  _237
REMARK   97  A    between atoms: _236  and  _239
REMARK   98  A    between atoms: _239  and  _240
REMARK   99  A    between atoms: _242  and  _244
REMARK  100  A    between atoms: _244  and  _245
REMARK  101  A    between atoms: _244  and  _247
REMARK  102  A    between atoms: _247  and  _248
REMARK  103  A    between atoms: _248  and  _249
REMARK  104  A    between atoms: _254  and  _256
REMARK  105  A    between atoms: _256  and  _257
REMARK  106  A    between atoms: _256  and  _259
REMARK  107  A    between atoms: _259  and  _260
REMARK  108  A    between atoms: _262  and  _264
REMARK  109  A    between atoms: _264  and  _265
REMARK  110  A    between atoms: _267  and  _269
REMARK  111  A    between atoms: _269  and  _270
REMARK  112  A    between atoms: _269  and  _272
REMARK  113  A    between atoms: _272  and  _273
REMARK  114  A    between atoms: _276  and  _278
REMARK  115  A    between atoms: _278  and  _279
REMARK  116  A    between atoms: _278  and  _281
REMARK  117  A    between atoms: _281  and  _282
REMARK  118  A    between atoms: _287  and  _289
REMARK  119  A    between atoms: _289  and  _290
REMARK  120  A    between atoms: _289  and  _292
REMARK  121  A    between atoms: _292  and  _293
REMARK  122  A    between atoms: _296  and  _298
REMARK  123  A    between atoms: _298  and  _299
REMARK  124  A    between atoms: _302  and  _304
REMARK  125  A    between atoms: _304  and  _305
REMARK  126  A    between atoms: _304  and  _307
REMARK  127  A    between atoms: _307  and  _308
REMARK  128  A    between atoms: _313  and  _314
REMARK  129  A    between atoms: _316  and  _318
REMARK  130  A    between atoms: _318  and  _319
REMARK  131  A    between atoms: _318  and  _321
REMARK  132  A    between atoms: _321  and  _322
REMARK  133  A    between atoms: _327  and  _328
REMARK  134  A    between atoms: _330  and  _332
REMARK  135  A    between atoms: _332  and  _333
REMARK  136  A    between atoms: _332  and  _335
REMARK  137  A    between atoms: _335  and  _336
REMARK  138  A    between atoms: _336  and  _337
REMARK  139  A    between atoms: _342  and  _344
REMARK  140  A    between atoms: _344  and  _345
REMARK  141  A    between atoms: _344  and  _347
REMARK  142  A    between atoms: _350  and  _352
REMARK  143  A    between atoms: _352  and  _353
REMARK  144  A    between atoms: _352  and  _355
REMARK  145  A    between atoms: _358  and  _360
REMARK  146  A    between atoms: _360  and  _361
REMARK  147  A    between atoms: _360  and  _363
REMARK  148  A    between atoms: _363  and  _364
REMARK  149  A    between atoms: _364  and  _365
REMARK  150  A    between atoms: _365  and  _366
REMARK  151  A    between atoms: _375  and  _377
REMARK  152  A    between atoms: _377  and  _378
REMARK  153  A    between atoms: _381  and  _383
REMARK  154  A    between atoms: _383  and  _384
REMARK  155  A    between atoms: _383  and  _386
REMARK  156  A    between atoms: _386  and  _387
REMARK  157  A    between atoms: _389  and  _391
REMARK  158  A    between atoms: _391  and  _392
REMARK  159  A    between atoms: _391  and  _394
REMARK  160  A    between atoms: _394  and  _395
REMARK  161  A    between atoms: _400  and  _402
REMARK  162  A    between atoms: _402  and  _403
REMARK  163  A    between atoms: _402  and  _405
REMARK  164  A    between atoms: _405  and  _406
REMARK  165  A    between atoms: _416  and  _418
REMARK  166  A    between atoms: _418  and  _419
REMARK  167  A    between atoms: _418  and  _421
REMARK  168  A    between atoms: _421  and  _422
REMARK  169  A    between atoms: _425  and  _427
REMARK  170  A    between atoms: _427  and  _428
REMARK  171  A    between atoms: _427  and  _430
REMARK  172  A    between atoms: _430  and  _431
REMARK  173  A    between atoms: _436  and  _437
REMARK  174  A    between atoms: _439  and  _441
REMARK  175  A    between atoms: _441  and  _442
REMARK  176  A    between atoms: _444  and  _446
REMARK  177  A    between atoms: _446  and  _447
REMARK  178  A    between atoms: _446  and  _449
REMARK  179  A    between atoms: _449  and  _450
REMARK  180  A    between atoms: _460  and  _462
REMARK  181  A    between atoms: _462  and  _463
REMARK  182  A    between atoms: _462  and  _465
REMARK  183  A    between atoms: _465  and  _466
REMARK  184  A    between atoms: _468  and  _470
REMARK  185  A    between atoms: _470  and  _471
REMARK  186  A    between atoms: _473  and  _475
REMARK  187  A    between atoms: _475  and  _476
REMARK  188  A    between atoms: _475  and  _478
REMARK  189  A    between atoms: _478  and  _479
REMARK  190  A    between atoms: _482  and  _484
REMARK  191  A    between atoms: _484  and  _485
REMARK  192  A    between atoms: _484  and  _487
REMARK  193  A    between atoms: _487  and  _488
REMARK  194  A    between atoms: _493  and  _495
REMARK  195  A    between atoms: _495  and  _496
REMARK  196  A    between atoms: _495  and  _498
REMARK  197  A    between atoms: _498  and  _499
REMARK  198  A    between atoms: _504  and  _506
REMARK  199  A    between atoms: _506  and  _507
REMARK  200  A    between atoms: _506  and  _509
REMARK  201  A    between atoms: _509  and  _510
REMARK  202  A    between atoms: _517  and  _518
REMARK  203  A    between atoms: _523  and  _525
REMARK  204  A    between atoms: _525  and  _526
REMARK  205  A    between atoms: _525  and  _528
REMARK  206  A    between atoms: _528  and  _529
REMARK  207  A    between atoms: _532  and  _534
REMARK  208  A    between atoms: _534  and  _535
REMARK  209  A    between atoms: _534  and  _537
REMARK  210  A    between atoms: _537  and  _538
REMARK  211  A    between atoms: _540  and  _542
REMARK  212  A    between atoms: _542  and  _543
REMARK  213  A    between atoms: _542  and  _545
REMARK  214  A    between atoms: _545  and  _546
REMARK  215  A    between atoms: _551  and  _552
REMARK  216  A    between atoms: _554  and  _556
REMARK  217  A    between atoms: _556  and  _557
REMARK  218  A    between atoms: _556  and  _559
REMARK  219  A    between atoms: _559  and  _560
REMARK  220  A    between atoms: _562  and  _564
REMARK  221  A    between atoms: _564  and  _565
REMARK  222  A    between atoms: _564  and  _567
REMARK  223  A    between atoms: _567  and  _568
REMARK  224  A    between atoms: _571  and  _573
REMARK  225  A    between atoms: _573  and  _574
REMARK  226  A    between atoms: _573  and  _576
REMARK  227  A    between atoms: _576  and  _577
REMARK  228  A    between atoms: _582  and  _584
REMARK  229  A    between atoms: _584  and  _585
REMARK  230  A    between atoms: _584  and  _587
REMARK  231  A    between atoms: _587  and  _588
REMARK  232  A    between atoms: _594  and  _596
REMARK  233  A    between atoms: _596  and  _597
REMARK  234  A    between atoms: _601  and  _602
REMARK  235  A    between atoms: _607  and  _609
REMARK  236  A    between atoms: _609  and  _610
REMARK  237  A    between atoms: _609  and  _612
REMARK  238  A    between atoms: _612  and  _613
REMARK  239  A    between atoms: _618  and  _619
REMARK  240  A    between atoms: _621  and  _623
REMARK  241  A    between atoms: _623  and  _624
REMARK  242  A    between atoms: _623  and  _626
REMARK  243  A    between atoms: _626  and  _627
REMARK  244  A    between atoms: _627  and  _628
REMARK  245  A    between atoms: _628  and  _629
REMARK  246  A    between atoms: _629  and  _630
REMARK  247  A    between atoms: _634  and  _636
REMARK  248  A    between atoms: _636  and  _637
REMARK  249  A    between atoms: _636  and  _639
REMARK  250  A    between atoms: _639  and  _640
REMARK  251  A    between atoms: _640  and  _641
REMARK  252  A    between atoms: _646  and  _648
REMARK  253  A    between atoms: _648  and  _649
REMARK  254  A    between atoms: _648  and  _651
REMARK  255  A    between atoms: _651  and  _652
REMARK  256  A    between atoms: _655  and  _656
REMARK  257  A    between atoms: _661  and  _663
REMARK  258  A    between atoms: _663  and  _664
REMARK  259  A    between atoms: _663  and  _666
REMARK  260  A    between atoms: _666  and  _667
REMARK  261  A    between atoms: _673  and  _675
REMARK  262  A    between atoms: _675  and  _676
REMARK  263  A    between atoms: _678  and  _680
REMARK  264  A    between atoms: _680  and  _681
REMARK  265  A    between atoms: _680  and  _683
REMARK  266  A    between atoms: _683  and  _684
REMARK  267  A    between atoms: _689  and  _690
REMARK  268  A    between atoms: _692  and  _694
REMARK  269  A    between atoms: _694  and  _695
REMARK  270  A    between atoms: _694  and  _697
REMARK  271  A    between atoms: _697  and  _698
REMARK  272  A    between atoms: _701  and  _703
REMARK  273  A    between atoms: _703  and  _704
REMARK  274  A    between atoms: _703  and  _706
REMARK  275  A    between atoms: _706  and  _707
REMARK  276  A    between atoms: _712  and  _713
REMARK                            x       y       z     vdW  Elec       q    Type
REMARK                         _______ _______ _______ _____ _____    ______ ____
ROOT
ATOM      1  C   TRP A   3      12.126 -23.498 -12.478  0.00  0.00    +0.241 C 
ATOM      2  O   TRP A   3      11.112 -23.536 -11.774  0.00  0.00    -0.273 OA
ATOM      3  N   SER A   4      12.287 -22.662 -13.497  0.00  0.00    -0.295 N 
ATOM      4  H   SER A   4      13.231 -22.576 -13.926  0.00  0.00    +0.150 HD
ENDROOT
BRANCH   3   5
ATOM      5  CA  SER A   4      11.194 -21.856 -14.043  0.00  0.00    +0.178 C 
BRANCH   5   6
ATOM      6  C   SER A   4      10.863 -22.380 -15.435  0.00  0.00    +0.243 C 
ATOM      7  N   GLY A   5       9.573 -22.487 -15.767  0.00  0.00    -0.295 N 
ATOM      8  H   GLY A   5       8.841 -22.250 -15.068  0.00  0.00    +0.150 HD
ATOM      9  O   SER A   4      11.771 -22.690 -16.201  0.00  0.00    -0.273 OA
BRANCH   7  10
ATOM     10  CA  GLY A   5       9.181 -22.932 -17.096  0.00  0.00    +0.176 C 
BRANCH  10  11
ATOM     11  C   GLY A   5       9.469 -21.885 -18.158  0.00  0.00    +0.243 C 
ATOM     12  O   GLY A   5       9.469 -20.688 -17.867  0.00  0.00    -0.273 OA
ATOM     13  N   ASP A   6       9.683 -22.329 -19.397  0.00  0.00    -0.296 N 
ATOM     14  H   ASP A   6       9.543 -23.338 -19.606  0.00  0.00    +0.150 HD
BRANCH  13  15
ATOM     15  CA  ASP A   6      10.110 -21.429 -20.469  0.00  0.00    +0.160 C 
BRANCH  15  16
ATOM     16  C   ASP A   6       9.190 -21.355 -21.691  0.00  0.00    +0.241 C 
ATOM     17  N   ASN A   7       8.214 -22.254 -21.811  0.00  0.00    -0.298 N 
ATOM     18  H   ASN A   7       8.068 -22.963 -21.064  0.00  0.00    +0.150 HD
ATOM     19  O   ASP A   6       9.376 -20.485 -22.529  0.00  0.00    -0.273 OA
BRANCH  17  20
ATOM     20  CA  ASN A   7       7.349 -22.248 -22.988  0.00  0.00    +0.146 C 
BRANCH  20  21
ATOM     21  C   ASN A   7       5.855 -22.334 -22.675  0.00  0.00    +0.227 C 
ATOM     22  O   ASN A   7       5.031 -22.386 -23.587  0.00  0.00    -0.286 OA
ENDBRANCH  20  21
BRANCH  20  23
ATOM     23  CB  ASN A   7       7.772 -23.342 -23.994  0.00  0.00    +0.112 C 
BRANCH  23  24
ATOM     24  CG  ASN A   7       7.500 -24.754 -23.499  0.00  0.00    +0.222 C 
ATOM     25  OD1 ASN A   7       6.870 -24.966 -22.460  0.00  0.00    -0.275 OA
ATOM     26  ND2 ASN A   7       7.978 -25.731 -24.255  0.00  0.00    -0.329 N 
ATOM     27 HD21 ASN A   7       7.827 -26.723 -23.980  0.00  0.00    +0.145 HD
ATOM     28 HD22 ASN A   7       8.504 -25.507 -25.124  0.00  0.00    +0.145 HD
ENDBRANCH  23  24
ENDBRANCH  20  23
ENDBRANCH  17  20
ENDBRANCH  15  16
BRANCH  15  29
ATOM     29  CB  ASP A   6      11.522 -21.801 -20.936  0.00  0.00    +0.143 C 
BRANCH  29  30
ATOM     30  CG  ASP A   6      12.577 -21.476 -19.904  0.00  0.00    +0.367 C 
ATOM     31  OD2 ASP A   6      12.609 -20.318 -19.426  0.00  0.00    -0.246 OA
ATOM     32  OD1 ASP A   6      13.366 -22.380 -19.556  0.00  0.00    -0.246 OA
ENDBRANCH  29  30
ENDBRANCH  15  29
ENDBRANCH  13  15
ENDBRANCH  10  11
ENDBRANCH   7  10
ENDBRANCH   5   6
BRANCH   5  33
ATOM     33  CB  SER A   4      11.629 -20.390 -14.164  0.00  0.00    +0.166 C 
BRANCH  33  34
ATOM     34  OG  SER A   4      11.744 -19.792 -12.890  0.00  0.00    -0.380 OA
ATOM     35  H   SER A   4      12.419 -20.282 -12.356  0.00  0.00    +0.211 HD
ENDBRANCH  33  34
ENDBRANCH   5  33
ENDBRANCH   3   5
BRANCH   1  36
ATOM     36  CA  TRP A   3      13.287 -24.427 -12.192  0.00  0.00    +0.153 C 
BRANCH  36  38
ATOM     37  C   GLY A   2      14.814 -24.605 -10.297  0.00  0.00    +0.243 C 
ATOM     38  N   TRP A   3      13.582 -24.427 -10.760  0.00  0.00    -0.297 N 
ATOM     39  H   TRP A   3      12.805 -24.283 -10.084  0.00  0.00    +0.150 HD
ATOM     40  O   GLY A   2      15.806 -24.694 -11.024  0.00  0.00    -0.273 OA
BRANCH  37  41
ATOM     41  CA  GLY A   2      14.954 -24.688  -8.790  0.00  0.00    +0.176 C 
BRANCH  41  44
ATOM     42  C   TYR A   1      16.357 -25.863  -7.209  0.00  0.00    +0.239 C 
ATOM     43  O   TYR A   1      15.477 -25.826  -6.359  0.00  0.00    -0.274 OA
ATOM     44  N   GLY A   2      16.202 -25.335  -8.418  0.00  0.00    -0.296 N 
ATOM     45  H   GLY A   2      16.981 -25.385  -9.105  0.00  0.00    +0.150 HD
BRANCH  42  46
ATOM     46  CA  TYR A   1      17.694 -26.531  -6.905  0.00  0.00    +0.149 C 
BRANCH  46  47
ATOM     47  N   TYR A   1      17.682 -27.020  -5.524  0.00  0.00    -0.238 NA
ATOM     48  H   TYR A   1      16.798 -27.401  -5.131  0.00  0.00    +0.142 HD
ENDBRANCH  46  47
BRANCH  46  49
ATOM     49  CB  TYR A   1      17.949 -27.675  -7.893  0.00  0.00    +0.053 C 
BRANCH  49  50
ATOM     50  CG  TYR A   1      19.201 -28.462  -7.579  0.00  0.00    -0.020 A 
ATOM     51  CD2 TYR A   1      19.146 -29.587  -6.760  0.00  0.00    -0.001 A 
ATOM     52  CE2 TYR A   1      20.289 -30.306  -6.448  0.00  0.00    +0.036 A 
ATOM     53  CZ  TYR A   1      21.510 -29.908  -6.953  0.00  0.00    +0.134 A 
ATOM     54  CE1 TYR A   1      21.599 -28.785  -7.766  0.00  0.00    +0.036 A 
ATOM     55  CD1 TYR A   1      20.442 -28.070  -8.075  0.00  0.00    -0.001 A 
BRANCH  53  56
ATOM     56  OH  TYR A   1      22.631 -30.638  -6.628  0.00  0.00    -0.506 OA
ATOM     57  HH  TYR A   1      23.424 -30.233  -7.061  0.00  0.00    +0.292 HD
ENDBRANCH  53  56
ENDBRANCH  49  50
ENDBRANCH  46  49
ENDBRANCH  42  46
ENDBRANCH  41  44
ENDBRANCH  37  41
ENDBRANCH  36  38
BRANCH  36  58
ATOM     58  CB  TRP A   3      12.913 -25.842 -12.645  0.00  0.00    +0.057 C 
BRANCH  58  59
ATOM     59  CG  TRP A   3      12.544 -25.978 -14.122  0.00  0.00    -0.002 A 
ATOM     60  CD1 TRP A   3      11.282 -25.934 -14.670  0.00  0.00    +0.068 A 
ATOM     61  NE1 TRP A   3      11.352 -26.125 -16.034  0.00  0.00    -0.352 N 
ATOM     62  CE2 TRP A   3      12.664 -26.293 -16.394  0.00  0.00    +0.056 A 
ATOM     63  CZ2 TRP A   3      13.227 -26.504 -17.655  0.00  0.00    +0.017 A 
ATOM     64  CH2 TRP A   3      14.589 -26.642 -17.724  0.00  0.00    +0.001 A 
ATOM     65  CZ3 TRP A   3      15.393 -26.571 -16.578  0.00  0.00    +0.000 A 
ATOM     66  CE3 TRP A   3      14.832 -26.355 -15.319  0.00  0.00    +0.001 A 
ATOM     67  HE1 TRP A   3      10.541 -26.139 -16.684  0.00  0.00    +0.166 HD
ATOM     68  CD2 TRP A   3      13.444 -26.209 -15.218  0.00  0.00    +0.013 A 
ENDBRANCH  58  59
ENDBRANCH  36  58
ENDBRANCH   1  36
TORSDOF 25
REMARK  Name = ../refined-set-2016/3m8u/3m8u_pocket.pdb
REMARK  276 active torsions:
REMARK  status: ('A' for Active; 'I' for Inactive)
REMARK    1  A    between atoms: _1  and  _3
REMARK    2  A    between atoms: _3  and  _4
REMARK    3  A    between atoms: _3  and  _6
REMARK    4  A    between atoms: _6  and  _7
REMARK    5  A    between atoms: _12  and  _14
REMARK    6  A    between atoms: _14  and  _15
REMARK    7  A    between atoms: _14  and  _17
REMARK    8  A    between atoms: _20  and  _22
REMARK    9  A    between atoms: _22  and  _23
REMARK   10  A    between atoms: _22  and  _25
REMARK   11  A    between atoms: _25  and  _26
REMARK   12  A    between atoms: _28  and  _30
REMARK   13  A    between atoms: _30  and  _31
REMARK   14  A    between atoms: _30  and  _33
REMARK   15  A    between atoms: _33  and  _34
REMARK   16  A    between atoms: _34  and  _35
REMARK   17  A    between atoms: _35  and  _36
REMARK   18  A    between atoms: _45  and  _47
REMARK   19  A    between atoms: _47  and  _48
REMARK   20  A    between atoms: _47  and  _50
REMARK   21  A    between atoms: _50  and  _51
REMARK   22  A    between atoms: _54  and  _56
REMARK   23  A    between atoms: _56  and  _57
REMARK   24  A    between atoms: _56  and  _59
REMARK   25  A    between atoms: _62  and  _64
REMARK   26  A    between atoms: _64  and  _65
REMARK   27  A    between atoms: _64  and  _67
REMARK   28  A    between atoms: _67  and  _68
REMARK   29  A    between atoms: _68  and  _69
REMARK   30  A    between atoms: _71  and  _73
REMARK   31  A    between atoms: _73  and  _74
REMARK   32  A    between atoms: _73  and  _76
REMARK   33  A    between atoms: _76  and  _77
REMARK   34  A    between atoms: _80  and  _82
REMARK   35  A    between atoms: _82  and  _83
REMARK   36  A    between atoms: _85  and  _87
REMARK   37  A    between atoms: _87  and  _88
REMARK   38  A    between atoms: _87  and  _90
REMARK   39  A    between atoms: _90  and  _91
REMARK   40  A    between atoms: _94  and  _96
REMARK   41  A    between atoms: _96  and  _97
REMARK   42  A    between atoms: _96  and  _99
REMARK   43  A    between atoms: _99  and  _100
REMARK   44  A    between atoms: _102  and  _104
REMARK   45  A    between atoms: _104  and  _105
REMARK   46  A    between atoms: _104  and  _107
REMARK   47  A    between atoms: _107  and  _108
REMARK   48  A    between atoms: _113  and  _114
REMARK   49  A    between atoms: _116  and  _118
REMARK   50  A    between atoms: _118  and  _119
REMARK   51  A    between atoms: _118  and  _121
REMARK   52  A    between atoms: _121  and  _122
REMARK   53  A    between atoms: _127  and  _129
REMARK   54  A    between atoms: _129  and  _130
REMARK   55  A    between atoms: _133  and  _135
REMARK   56  A    between atoms: _135  and  _136
REMARK   57  A    between atoms: _135  and  _138
REMARK   58  A    between atoms: _138  and  _139
REMARK   59  A    between atoms: _139  and  _140
REMARK   60  A    between atoms: _145  and  _147
REMARK   61  A    between atoms: _147  and  _148
REMARK   62  A    between atoms: _147  and  _150
REMARK   63  A    between atoms: _150  and  _151
REMARK   64  A    between atoms: _156  and  _157
REMARK   65  A    between atoms: _159  and  _161
REMARK   66  A    between atoms: _161  and  _162
REMARK   67  A    between atoms: _161  and  _164
REMARK   68  A    between atoms: _164  and  _165
REMARK   69  A    between atoms: _165  and  _166
REMARK   70  A    between atoms: _168  and  _170
REMARK   71  A    between atoms: _170  and  _171
REMARK   72  A    between atoms: _170  and  _173
REMARK   73  A    between atoms: _173  and  _174
REMARK   74  A    between atoms: _177  and  _179
REMARK   75  A    between atoms: _179  and  _180
REMARK   76  A    between atoms: _179  and  _182
REMARK   77  A    between atoms: _182  and  _183
REMARK   78  A    between atoms: _186  and  _188
REMARK   79  A    between atoms: _188  and  _189
REMARK   80  A    between atoms: _188  and  _191
REMARK   81  A    between atoms: _191  and  _192
REMARK   82  A    between atoms: _195  and  _197
REMARK   83  A    between atoms: _197  and  _198
REMARK   84  A    between atoms: _197  and  _200
REMARK   85  A    between atoms: _200  and  _201
REMARK   86  A    between atoms: _204  and  _206
REMARK   87  A    between atoms: _206  and  _207
REMARK   88  A    between atoms: _206  and  _209
REMARK   89  A    between atoms: _209  and  _210
REMARK   90  A    between atoms: _217  and  _218
REMARK   91  A    between atoms: _223  and  _225
REMARK   92  A    between atoms: _225  and  _226
REMARK   93  A    between atoms: _225  and  _228
REMARK   94  A    between atoms: _228  and  _229
REMARK   95  A    between atoms: _234  and  _236
REMARK   96  A    between atoms: _236  and  _237
REMARK   97  A    between atoms: _236  and  _239
REMARK   98  A    between atoms: _239  and  _240
REMARK   99  A    between atoms: _242  and  _244
REMARK  100  A    between atoms: _244  and  _245
REMARK  101  A    between atoms: _244  and  _247
REMARK  102  A    between atoms: _247  and  _248
REMARK  103  A    between atoms: _248  and  _249
REMARK  104  A    between atoms: _254  and  _256
REMARK  105  A    between atoms: _256  and  _257
REMARK  106  A    between atoms: _256  and  _259
REMARK  107  A    between atoms: _259  and  _260
REMARK  108  A    between atoms: _262  and  _264
REMARK  109  A    between atoms: _264  and  _265
REMARK  110  A    between atoms: _267  and  _269
REMARK  111  A    between atoms: _269  and  _270
REMARK  112  A    between atoms: _269  and  _272
REMARK  113  A    between atoms: _272  and  _273
REMARK  114  A    between atoms: _276  and  _278
REMARK  115  A    between atoms: _278  and  _279
REMARK  116  A    between atoms: _278  and  _281
REMARK  117  A    between atoms: _281  and  _282
REMARK  118  A    between atoms: _287  and  _289
REMARK  119  A    between atoms: _289  and  _290
REMARK  120  A    between atoms: _289  and  _292
REMARK  121  A    between atoms: _292  and  _293
REMARK  122  A    between atoms: _296  and  _298
REMARK  123  A    between atoms: _298  and  _299
REMARK  124  A    between atoms: _302  and  _304
REMARK  125  A    between atoms: _304  and  _305
REMARK  126  A    between atoms: _304  and  _307
REMARK  127  A    between atoms: _307  and  _308
REMARK  128  A    between atoms: _313  and  _314
REMARK  129  A    between atoms: _316  and  _318
REMARK  130  A    between atoms: _318  and  _319
REMARK  131  A    between atoms: _318  and  _321
REMARK  132  A    between atoms: _321  and  _322
REMARK  133  A    between atoms: _327  and  _328
REMARK  134  A    between atoms: _330  and  _332
REMARK  135  A    between atoms: _332  and  _333
REMARK  136  A    between atoms: _332  and  _335
REMARK  137  A    between atoms: _335  and  _336
REMARK  138  A    between atoms: _336  and  _337
REMARK  139  A    between atoms: _342  and  _344
REMARK  140  A    between atoms: _344  and  _345
REMARK  141  A    between atoms: _344  and  _347
REMARK  142  A    between atoms: _350  and  _352
REMARK  143  A    between atoms: _352  and  _353
REMARK  144  A    between atoms: _352  and  _355
REMARK  145  A    between atoms: _358  and  _360
REMARK  146  A    between atoms: _360  and  _361
REMARK  147  A    between atoms: _360  and  _363
REMARK  148  A    between atoms: _363  and  _364
REMARK  149  A    between atoms: _364  and  _365
REMARK  150  A    between atoms: _365  and  _366
REMARK  151  A    between atoms: _375  and  _377
REMARK  152  A    between atoms: _377  and  _378
REMARK  153  A    between atoms: _381  and  _383
REMARK  154  A    between atoms: _383  and  _384
REMARK  155  A    between atoms: _383  and  _386
REMARK  156  A    between atoms: _386  and  _387
REMARK  157  A    between atoms: _389  and  _391
REMARK  158  A    between atoms: _391  and  _392
REMARK  159  A    between atoms: _391  and  _394
REMARK  160  A    between atoms: _394  and  _395
REMARK  161  A    between atoms: _400  and  _402
REMARK  162  A    between atoms: _402  and  _403
REMARK  163  A    between atoms: _402  and  _405
REMARK  164  A    between atoms: _405  and  _406
REMARK  165  A    between atoms: _416  and  _418
REMARK  166  A    between atoms: _418  and  _419
REMARK  167  A    between atoms: _418  and  _421
REMARK  168  A    between atoms: _421  and  _422
REMARK  169  A    between atoms: _425  and  _427
REMARK  170  A    between atoms: _427  and  _428
REMARK  171  A    between atoms: _427  and  _430
REMARK  172  A    between atoms: _430  and  _431
REMARK  173  A    between atoms: _436  and  _437
REMARK  174  A    between atoms: _439  and  _441
REMARK  175  A    between atoms: _441  and  _442
REMARK  176  A    between atoms: _444  and  _446
REMARK  177  A    between atoms: _446  and  _447
REMARK  178  A    between atoms: _446  and  _449
REMARK  179  A    between atoms: _449  and  _450
REMARK  180  A    between atoms: _460  and  _462
REMARK  181  A    between atoms: _462  and  _463
REMARK  182  A    between atoms: _462  and  _465
REMARK  183  A    between atoms: _465  and  _466
REMARK  184  A    between atoms: _468  and  _470
REMARK  185  A    between atoms: _470  and  _471
REMARK  186  A    between atoms: _473  and  _475
REMARK  187  A    between atoms: _475  and  _476
REMARK  188  A    between atoms: _475  and  _478
REMARK  189  A    between atoms: _478  and  _479
REMARK  190  A    between atoms: _482  and  _484
REMARK  191  A    between atoms: _484  and  _485
REMARK  192  A    between atoms: _484  and  _487
REMARK  193  A    between atoms: _487  and  _488
REMARK  194  A    between atoms: _493  and  _495
REMARK  195  A    between atoms: _495  and  _496
REMARK  196  A    between atoms: _495  and  _498
REMARK  197  A    between atoms: _498  and  _499
REMARK  198  A    between atoms: _504  and  _506
REMARK  199  A    between atoms: _506  and  _507
REMARK  200  A    between atoms: _506  and  _509
REMARK  201  A    between atoms: _509  and  _510
REMARK  202  A    between atoms: _517  and  _518
REMARK  203  A    between atoms: _523  and  _525
REMARK  204  A    between atoms: _525  and  _526
REMARK  205  A    between atoms: _525  and  _528
REMARK  206  A    between atoms: _528  and  _529
REMARK  207  A    between atoms: _532  and  _534
REMARK  208  A    between atoms: _534  and  _535
REMARK  209  A    between atoms: _534  and  _537
REMARK  210  A    between atoms: _537  and  _538
REMARK  211  A    between atoms: _540  and  _542
REMARK  212  A    between atoms: _542  and  _543
REMARK  213  A    between atoms: _542  and  _545
REMARK  214  A    between atoms: _545  and  _546
REMARK  215  A    between atoms: _551  and  _552
REMARK  216  A    between atoms: _554  and  _556
REMARK  217  A    between atoms: _556  and  _557
REMARK  218  A    between atoms: _556  and  _559
REMARK  219  A    between atoms: _559  and  _560
REMARK  220  A    between atoms: _562  and  _564
REMARK  221  A    between atoms: _564  and  _565
REMARK  222  A    between atoms: _564  and  _567
REMARK  223  A    between atoms: _567  and  _568
REMARK  224  A    between atoms: _571  and  _573
REMARK  225  A    between atoms: _573  and  _574
REMARK  226  A    between atoms: _573  and  _576
REMARK  227  A    between atoms: _576  and  _577
REMARK  228  A    between atoms: _582  and  _584
REMARK  229  A    between atoms: _584  and  _585
REMARK  230  A    between atoms: _584  and  _587
REMARK  231  A    between atoms: _587  and  _588
REMARK  232  A    between atoms: _594  and  _596
REMARK  233  A    between atoms: _596  and  _597
REMARK  234  A    between atoms: _601  and  _602
REMARK  235  A    between atoms: _607  and  _609
REMARK  236  A    between atoms: _609  and  _610
REMARK  237  A    between atoms: _609  and  _612
REMARK  238  A    between atoms: _612  and  _613
REMARK  239  A    between atoms: _618  and  _619
REMARK  240  A    between atoms: _621  and  _623
REMARK  241  A    between atoms: _623  and  _624
REMARK  242  A    between atoms: _623  and  _626
REMARK  243  A    between atoms: _626  and  _627
REMARK  244  A    between atoms: _627  and  _628
REMARK  245  A    between atoms: _628  and  _629
REMARK  246  A    between atoms: _629  and  _630
REMARK  247  A    between atoms: _634  and  _636
REMARK  248  A    between atoms: _636  and  _637
REMARK  249  A    between atoms: _636  and  _639
REMARK  250  A    between atoms: _639  and  _640
REMARK  251  A    between atoms: _640  and  _641
REMARK  252  A    between atoms: _646  and  _648
REMARK  253  A    between atoms: _648  and  _649
REMARK  254  A    between atoms: _648  and  _651
REMARK  255  A    between atoms: _651  and  _652
REMARK  256  A    between atoms: _655  and  _656
REMARK  257  A    between atoms: _661  and  _663
REMARK  258  A    between atoms: _663  and  _664
REMARK  259  A    between atoms: _663  and  _666
REMARK  260  A    between atoms: _666  and  _667
REMARK  261  A    between atoms: _673  and  _675
REMARK  262  A    between atoms: _675  and  _676
REMARK  263  A    between atoms: _678  and  _680
REMARK  264  A    between atoms: _680  and  _681
REMARK  265  A    between atoms: _680  and  _683
REMARK  266  A    between atoms: _683  and  _684
REMARK  267  A    between atoms: _689  and  _690
REMARK  268  A    between atoms: _692  and  _694
REMARK  269  A    between atoms: _694  and  _695
REMARK  270  A    between atoms: _694  and  _697
REMARK  271  A    between atoms: _697  and  _698
REMARK  272  A    between atoms: _701  and  _703
REMARK  273  A    between atoms: _703  and  _704
REMARK  274  A    between atoms: _703  and  _706
REMARK  275  A    between atoms: _706  and  _707
REMARK  276  A    between atoms: _712  and  _713
REMARK                            x       y       z     vdW  Elec       q    Type
REMARK                         _______ _______ _______ _____ _____    ______ ____
ROOT
ATOM      1  C   ASN A   1       9.061 -28.187 -18.678  0.00  0.00    +0.239 C 
ATOM      2  N   PHE A   2       8.151 -28.664 -17.829  0.00  0.00    -0.298 N 
ATOM      3  H   PHE A   2       7.166 -28.775 -18.143  0.00  0.00    +0.150 HD
ATOM      4  O   ASN A   1      10.142 -27.722 -18.302  0.00  0.00    -0.274 OA
ENDROOT
BRANCH   1   5
ATOM      5  CA  ASN A   1       8.713 -28.268 -20.171  0.00  0.00    +0.154 C 
BRANCH   5   6
ATOM      6  N   ASN A   1       7.446 -28.964 -20.394  0.00  0.00    -0.238 NA
ATOM      7  H   ASN A   1       6.596 -28.398 -20.590  0.00  0.00    +0.142 HD
ENDBRANCH   5   6
BRANCH   5   8
ATOM      8  CB  ASN A   1       8.652 -26.888 -20.850  0.00  0.00    +0.111 C 
BRANCH   8   9
ATOM      9  CG  ASN A   1       9.858 -26.020 -20.565  0.00  0.00    +0.221 C 
ATOM     10  OD1 ASN A   1       9.754 -25.061 -19.819  0.00  0.00    -0.275 OA
ATOM     11  ND2 ASN A   1      11.000 -26.331 -21.181  0.00  0.00    -0.329 N 
ATOM     12 HD21 ASN A   1      11.847 -25.746 -21.033  0.00  0.00    +0.145 HD
ATOM     13 HD22 ASN A   1      11.043 -27.159 -21.809  0.00  0.00    +0.145 HD
ENDBRANCH   8   9
ENDBRANCH   5   8
ENDBRANCH   1   5
BRANCH   2  14
ATOM     14  CA  PHE A   2       8.517 -29.033 -16.464  0.00  0.00    +0.141 C 
BRANCH  14  15
ATOM     15  C   PHE A   2       8.882 -30.521 -16.405  0.00  0.00    +0.227 C 
ATOM     16  O   PHE A   2      10.019 -30.886 -16.109  0.00  0.00    -0.286 OA
ENDBRANCH  14  15
BRANCH  14  17
ATOM     17  CB  PHE A   2       7.382 -28.729 -15.481  0.00  0.00    +0.054 C 
BRANCH  17  18
ATOM     18  CG  PHE A   2       7.309 -27.288 -15.079  0.00  0.00    -0.020 A 
ATOM     19  CD2 PHE A   2       7.842 -26.863 -13.871  0.00  0.00    -0.004 A 
ATOM     20  CE2 PHE A   2       7.782 -25.534 -13.498  0.00  0.00    -0.000 A 
ATOM     21  CZ  PHE A   2       7.192 -24.607 -14.348  0.00  0.00    -0.000 A 
ATOM     22  CE1 PHE A   2       6.655 -25.023 -15.551  0.00  0.00    -0.000 A 
ATOM     23  CD1 PHE A   2       6.724 -26.354 -15.916  0.00  0.00    -0.004 A 
ENDBRANCH  17  18
ENDBRANCH  14  17
ENDBRANCH   2  14
TORSDOF 8
REMARK  Name = ../refined-set-2016/3m8u/3m8u_pocket.pdb
REMARK  276 active torsions:
REMARK  status: ('A' for Active; 'I' for Inactive)
REMARK    1  A    between atoms: _1  and  _3
REMARK    2  A    between atoms: _3  and  _4
REMARK    3  A    between atoms: _3  and  _6
REMARK    4  A    between atoms: _6  and  _7
REMARK    5  A    between atoms: _12  and  _14
REMARK    6  A    between atoms: _14  and  _15
REMARK    7  A    between atoms: _14  and  _17
REMARK    8  A    between atoms: _20  and  _22
REMARK    9  A    between atoms: _22  and  _23
REMARK   10  A    between atoms: _22  and  _25
REMARK   11  A    between atoms: _25  and  _26
REMARK   12  A    between atoms: _28  and  _30
REMARK   13  A    between atoms: _30  and  _31
REMARK   14  A    between atoms: _30  and  _33
REMARK   15  A    between atoms: _33  and  _34
REMARK   16  A    between atoms: _34  and  _35
REMARK   17  A    between atoms: _35  and  _36
REMARK   18  A    between atoms: _45  and  _47
REMARK   19  A    between atoms: _47  and  _48
REMARK   20  A    between atoms: _47  and  _50
REMARK   21  A    between atoms: _50  and  _51
REMARK   22  A    between atoms: _54  and  _56
REMARK   23  A    between atoms: _56  and  _57
REMARK   24  A    between atoms: _56  and  _59
REMARK   25  A    between atoms: _62  and  _64
REMARK   26  A    between atoms: _64  and  _65
REMARK   27  A    between atoms: _64  and  _67
REMARK   28  A    between atoms: _67  and  _68
REMARK   29  A    between atoms: _68  and  _69
REMARK   30  A    between atoms: _71  and  _73
REMARK   31  A    between atoms: _73  and  _74
REMARK   32  A    between atoms: _73  and  _76
REMARK   33  A    between atoms: _76  and  _77
REMARK   34  A    between atoms: _80  and  _82
REMARK   35  A    between atoms: _82  and  _83
REMARK   36  A    between atoms: _85  and  _87
REMARK   37  A    between atoms: _87  and  _88
REMARK   38  A    between atoms: _87  and  _90
REMARK   39  A    between atoms: _90  and  _91
REMARK   40  A    between atoms: _94  and  _96
REMARK   41  A    between atoms: _96  and  _97
REMARK   42  A    between atoms: _96  and  _99
REMARK   43  A    between atoms: _99  and  _100
REMARK   44  A    between atoms: _102  and  _104
REMARK   45  A    between atoms: _104  and  _105
REMARK   46  A    between atoms: _104  and  _107
REMARK   47  A    between atoms: _107  and  _108
REMARK   48  A    between atoms: _113  and  _114
REMARK   49  A    between atoms: _116  and  _118
REMARK   50  A    between atoms: _118  and  _119
REMARK   51  A    between atoms: _118  and  _121
REMARK   52  A    between atoms: _121  and  _122
REMARK   53  A    between atoms: _127  and  _129
REMARK   54  A    between atoms: _129  and  _130
REMARK   55  A    between atoms: _133  and  _135
REMARK   56  A    between atoms: _135  and  _136
REMARK   57  A    between atoms: _135  and  _138
REMARK   58  A    between atoms: _138  and  _139
REMARK   59  A    between atoms: _139  and  _140
REMARK   60  A    between atoms: _145  and  _147
REMARK   61  A    between atoms: _147  and  _148
REMARK   62  A    between atoms: _147  and  _150
REMARK   63  A    between atoms: _150  and  _151
REMARK   64  A    between atoms: _156  and  _157
REMARK   65  A    between atoms: _159  and  _161
REMARK   66  A    between atoms: _161  and  _162
REMARK   67  A    between atoms: _161  and  _164
REMARK   68  A    between atoms: _164  and  _165
REMARK   69  A    between atoms: _165  and  _166
REMARK   70  A    between atoms: _168  and  _170
REMARK   71  A    between atoms: _170  and  _171
REMARK   72  A    between atoms: _170  and  _173
REMARK   73  A    between atoms: _173  and  _174
REMARK   74  A    between atoms: _177  and  _179
REMARK   75  A    between atoms: _179  and  _180
REMARK   76  A    between atoms: _179  and  _182
REMARK   77  A    between atoms: _182  and  _183
REMARK   78  A    between atoms: _186  and  _188
REMARK   79  A    between atoms: _188  and  _189
REMARK   80  A    between atoms: _188  and  _191
REMARK   81  A    between atoms: _191  and  _192
REMARK   82  A    between atoms: _195  and  _197
REMARK   83  A    between atoms: _197  and  _198
REMARK   84  A    between atoms: _197  and  _200
REMARK   85  A    between atoms: _200  and  _201
REMARK   86  A    between atoms: _204  and  _206
REMARK   87  A    between atoms: _206  and  _207
REMARK   88  A    between atoms: _206  and  _209
REMARK   89  A    between atoms: _209  and  _210
REMARK   90  A    between atoms: _217  and  _218
REMARK   91  A    between atoms: _223  and  _225
REMARK   92  A    between atoms: _225  and  _226
REMARK   93  A    between atoms: _225  and  _228
REMARK   94  A    between atoms: _228  and  _229
REMARK   95  A    between atoms: _234  and  _236
REMARK   96  A    between atoms: _236  and  _237
REMARK   97  A    between atoms: _236  and  _239
REMARK   98  A    between atoms: _239  and  _240
REMARK   99  A    between atoms: _242  and  _244
REMARK  100  A    between atoms: _244  and  _245
REMARK  101  A    between atoms: _244  and  _247
REMARK  102  A    between atoms: _247  and  _248
REMARK  103  A    between atoms: _248  and  _249
REMARK  104  A    between atoms: _254  and  _256
REMARK  105  A    between atoms: _256  and  _257
REMARK  106  A    between atoms: _256  and  _259
REMARK  107  A    between atoms: _259  and  _260
REMARK  108  A    between atoms: _262  and  _264
REMARK  109  A    between atoms: _264  and  _265
REMARK  110  A    between atoms: _267  and  _269
REMARK  111  A    between atoms: _269  and  _270
REMARK  112  A    between atoms: _269  and  _272
REMARK  113  A    between atoms: _272  and  _273
REMARK  114  A    between atoms: _276  and  _278
REMARK  115  A    between atoms: _278  and  _279
REMARK  116  A    between atoms: _278  and  _281
REMARK  117  A    between atoms: _281  and  _282
REMARK  118  A    between atoms: _287  and  _289
REMARK  119  A    between atoms: _289  and  _290
REMARK  120  A    between atoms: _289  and  _292
REMARK  121  A    between atoms: _292  and  _293
REMARK  122  A    between atoms: _296  and  _298
REMARK  123  A    between atoms: _298  and  _299
REMARK  124  A    between atoms: _302  and  _304
REMARK  125  A    between atoms: _304  and  _305
REMARK  126  A    between atoms: _304  and  _307
REMARK  127  A    between atoms: _307  and  _308
REMARK  128  A    between atoms: _313  and  _314
REMARK  129  A    between atoms: _316  and  _318
REMARK  130  A    between atoms: _318  and  _319
REMARK  131  A    between atoms: _318  and  _321
REMARK  132  A    between atoms: _321  and  _322
REMARK  133  A    between atoms: _327  and  _328
REMARK  134  A    between atoms: _330  and  _332
REMARK  135  A    between atoms: _332  and  _333
REMARK  136  A    between atoms: _332  and  _335
REMARK  137  A    between atoms: _335  and  _336
REMARK  138  A    between atoms: _336  and  _337
REMARK  139  A    between atoms: _342  and  _344
REMARK  140  A    between atoms: _344  and  _345
REMARK  141  A    between atoms: _344  and  _347
REMARK  142  A    between atoms: _350  and  _352
REMARK  143  A    between atoms: _352  and  _353
REMARK  144  A    between atoms: _352  and  _355
REMARK  145  A    between atoms: _358  and  _360
REMARK  146  A    between atoms: _360  and  _361
REMARK  147  A    between atoms: _360  and  _363
REMARK  148  A    between atoms: _363  and  _364
REMARK  149  A    between atoms: _364  and  _365
REMARK  150  A    between atoms: _365  and  _366
REMARK  151  A    between atoms: _375  and  _377
REMARK  152  A    between atoms: _377  and  _378
REMARK  153  A    between atoms: _381  and  _383
REMARK  154  A    between atoms: _383  and  _384
REMARK  155  A    between atoms: _383  and  _386
REMARK  156  A    between atoms: _386  and  _387
REMARK  157  A    between atoms: _389  and  _391
REMARK  158  A    between atoms: _391  and  _392
REMARK  159  A    between atoms: _391  and  _394
REMARK  160  A    between atoms: _394  and  _395
REMARK  161  A    between atoms: _400  and  _402
REMARK  162  A    between atoms: _402  and  _403
REMARK  163  A    between atoms: _402  and  _405
REMARK  164  A    between atoms: _405  and  _406
REMARK  165  A    between atoms: _416  and  _418
REMARK  166  A    between atoms: _418  and  _419
REMARK  167  A    between atoms: _418  and  _421
REMARK  168  A    between atoms: _421  and  _422
REMARK  169  A    between atoms: _425  and  _427
REMARK  170  A    between atoms: _427  and  _428
REMARK  171  A    between atoms: _427  and  _430
REMARK  172  A    between atoms: _430  and  _431
REMARK  173  A    between atoms: _436  and  _437
REMARK  174  A    between atoms: _439  and  _441
REMARK  175  A    between atoms: _441  and  _442
REMARK  176  A    between atoms: _444  and  _446
REMARK  177  A    between atoms: _446  and  _447
REMARK  178  A    between atoms: _446  and  _449
REMARK  179  A    between atoms: _449  and  _450
REMARK  180  A    between atoms: _460  and  _462
REMARK  181  A    between atoms: _462  and  _463
REMARK  182  A    between atoms: _462  and  _465
REMARK  183  A    between atoms: _465  and  _466
REMARK  184  A    between atoms: _468  and  _470
REMARK  185  A    between atoms: _470  and  _471
REMARK  186  A    between atoms: _473  and  _475
REMARK  187  A    between atoms: _475  and  _476
REMARK  188  A    between atoms: _475  and  _478
REMARK  189  A    between atoms: _478  and  _479
REMARK  190  A    between atoms: _482  and  _484
REMARK  191  A    between atoms: _484  and  _485
REMARK  192  A    between atoms: _484  and  _487
REMARK  193  A    between atoms: _487  and  _488
REMARK  194  A    between atoms: _493  and  _495
REMARK  195  A    between atoms: _495  and  _496
REMARK  196  A    between atoms: _495  and  _498
REMARK  197  A    between atoms: _498  and  _499
REMARK  198  A    between atoms: _504  and  _506
REMARK  199  A    between atoms: _506  and  _507
REMARK  200  A    between atoms: _506  and  _509
REMARK  201  A    between atoms: _509  and  _510
REMARK  202  A    between atoms: _517  and  _518
REMARK  203  A    between atoms: _523  and  _525
REMARK  204  A    between atoms: _525  and  _526
REMARK  205  A    between atoms: _525  and  _528
REMARK  206  A    between atoms: _528  and  _529
REMARK  207  A    between atoms: _532  and  _534
REMARK  208  A    between atoms: _534  and  _535
REMARK  209  A    between atoms: _534  and  _537
REMARK  210  A    between atoms: _537  and  _538
REMARK  211  A    between atoms: _540  and  _542
REMARK  212  A    between atoms: _542  and  _543
REMARK  213  A    between atoms: _542  and  _545
REMARK  214  A    between atoms: _545  and  _546
REMARK  215  A    between atoms: _551  and  _552
REMARK  216  A    between atoms: _554  and  _556
REMARK  217  A    between atoms: _556  and  _557
REMARK  218  A    between atoms: _556  and  _559
REMARK  219  A    between atoms: _559  and  _560
REMARK  220  A    between atoms: _562  and  _564
REMARK  221  A    between atoms: _564  and  _565
REMARK  222  A    between atoms: _564  and  _567
REMARK  223  A    between atoms: _567  and  _568
REMARK  224  A    between atoms: _571  and  _573
REMARK  225  A    between atoms: _573  and  _574
REMARK  226  A    between atoms: _573  and  _576
REMARK  227  A    between atoms: _576  and  _577
REMARK  228  A    between atoms: _582  and  _584
REMARK  229  A    between atoms: _584  and  _585
REMARK  230  A    between atoms: _584  and  _587
REMARK  231  A    between atoms: _587  and  _588
REMARK  232  A    between atoms: _594  and  _596
REMARK  233  A    between atoms: _596  and  _597
REMARK  234  A    between atoms: _601  and  _602
REMARK  235  A    between atoms: _607  and  _609
REMARK  236  A    between atoms: _609  and  _610
REMARK  237  A    between atoms: _609  and  _612
REMARK  238  A    between atoms: _612  and  _613
REMARK  239  A    between atoms: _618  and  _619
REMARK  240  A    between atoms: _621  and  _623
REMARK  241  A    between atoms: _623  and  _624
REMARK  242  A    between atoms: _623  and  _626
REMARK  243  A    between atoms: _626  and  _627
REMARK  244  A    between atoms: _627  and  _628
REMARK  245  A    between atoms: _628  and  _629
REMARK  246  A    between atoms: _629  and  _630
REMARK  247  A    between atoms: _634  and  _636
REMARK  248  A    between atoms: _636  and  _637
REMARK  249  A    between atoms: _636  and  _639
REMARK  250  A    between atoms: _639  and  _640
REMARK  251  A    between atoms: _640  and  _641
REMARK  252  A    between atoms: _646  and  _648
REMARK  253  A    between atoms: _648  and  _649
REMARK  254  A    between atoms: _648  and  _651
REMARK  255  A    between atoms: _651  and  _652
REMARK  256  A    between atoms: _655  and  _656
REMARK  257  A    between atoms: _661  and  _663
REMARK  258  A    between atoms: _663  and  _664
REMARK  259  A    between atoms: _663  and  _666
REMARK  260  A    between atoms: _666  and  _667
REMARK  261  A    between atoms: _673  and  _675
REMARK  262  A    between atoms: _675  and  _676
REMARK  263  A    between atoms: _678  and  _680
REMARK  264  A    between atoms: _680  and  _681
REMARK  265  A    between atoms: _680  and  _683
REMARK  266  A    between atoms: _683  and  _684
REMARK  267  A    between atoms: _689  and  _690
REMARK  268  A    between atoms: _692  and  _694
REMARK  269  A    between atoms: _694  and  _695
REMARK  270  A    between atoms: _694  and  _697
REMARK  271  A    between atoms: _697  and  _698
REMARK  272  A    between atoms: _701  and  _703
REMARK  273  A    between atoms: _703  and  _704
REMARK  274  A    between atoms: _703  and  _706
REMARK  275  A    between atoms: _706  and  _707
REMARK  276  A    between atoms: _712  and  _713
REMARK                            x       y       z     vdW  Elec       q    Type
REMARK                         _______ _______ _______ _____ _____    ______ ____
ROOT
ATOM      1  C   PRO A   1      13.823 -32.329 -17.069  0.00  0.00    +0.239 C 
ATOM      2  N   LEU A   2      12.851 -32.297 -16.170  0.00  0.00    -0.298 N 
ATOM      3  H   LEU A   2      11.878 -32.081 -16.466  0.00  0.00    +0.150 HD
ATOM      4  O   PRO A   1      14.949 -32.749 -16.808  0.00  0.00    -0.274 OA
ENDROOT
BRANCH   1   6
ATOM      5  N   PRO A   1      12.123 -32.192 -18.904  0.00  0.00    -0.210 NA
ATOM      6  CA  PRO A   1      13.480 -31.828 -18.476  0.00  0.00    +0.149 C 
ATOM      7  CB  PRO A   1      13.448 -30.294 -18.504  0.00  0.00    +0.028 C 
ATOM      8  CG  PRO A   1      12.462 -29.983 -19.601  0.00  0.00    +0.021 C 
ATOM      9  CD  PRO A   1      11.386 -31.034 -19.438  0.00  0.00    +0.089 C 
ENDBRANCH   1   6
BRANCH   2  10
ATOM     10  CA  LEU A   2      13.141 -32.563 -14.774  0.00  0.00    +0.137 C 
BRANCH  10  11
ATOM     11  C   LEU A   2      13.117 -34.045 -14.410  0.00  0.00    +0.227 C 
ATOM     12  O   LEU A   2      13.851 -34.457 -13.521  0.00  0.00    -0.286 OA
ENDBRANCH  10  11
BRANCH  10  13
ATOM     13  CB  LEU A   2      12.165 -31.802 -13.883  0.00  0.00    +0.028 C 
BRANCH  13  14
ATOM     14  CG  LEU A   2      12.250 -30.289 -14.057  0.00  0.00    +0.002 C 
ATOM     15  CD2 LEU A   2      11.035 -29.605 -13.432  0.00  0.00    +0.000 C 
ATOM     16  CD1 LEU A   2      13.556 -29.759 -13.459  0.00  0.00    +0.000 C 
ENDBRANCH  13  14
ENDBRANCH  10  13
ENDBRANCH   2  10
TORSDOF 5
REMARK  Name = ../refined-set-2016/3m8u/3m8u_pocket.pdb
REMARK  276 active torsions:
REMARK  status: ('A' for Active; 'I' for Inactive)
REMARK    1  A    between atoms: _1  and  _3
REMARK    2  A    between atoms: _3  and  _4
REMARK    3  A    between atoms: _3  and  _6
REMARK    4  A    between atoms: _6  and  _7
REMARK    5  A    between atoms: _12  and  _14
REMARK    6  A    between atoms: _14  and  _15
REMARK    7  A    between atoms: _14  and  _17
REMARK    8  A    between atoms: _20  and  _22
REMARK    9  A    between atoms: _22  and  _23
REMARK   10  A    between atoms: _22  and  _25
REMARK   11  A    between atoms: _25  and  _26
REMARK   12  A    between atoms: _28  and  _30
REMARK   13  A    between atoms: _30  and  _31
REMARK   14  A    between atoms: _30  and  _33
REMARK   15  A    between atoms: _33  and  _34
REMARK   16  A    between atoms: _34  and  _35
REMARK   17  A    between atoms: _35  and  _36
REMARK   18  A    between atoms: _45  and  _47
REMARK   19  A    between atoms: _47  and  _48
REMARK   20  A    between atoms: _47  and  _50
REMARK   21  A    between atoms: _50  and  _51
REMARK   22  A    between atoms: _54  and  _56
REMARK   23  A    between atoms: _56  and  _57
REMARK   24  A    between atoms: _56  and  _59
REMARK   25  A    between atoms: _62  and  _64
REMARK   26  A    between atoms: _64  and  _65
REMARK   27  A    between atoms: _64  and  _67
REMARK   28  A    between atoms: _67  and  _68
REMARK   29  A    between atoms: _68  and  _69
REMARK   30  A    between atoms: _71  and  _73
REMARK   31  A    between atoms: _73  and  _74
REMARK   32  A    between atoms: _73  and  _76
REMARK   33  A    between atoms: _76  and  _77
REMARK   34  A    between atoms: _80  and  _82
REMARK   35  A    between atoms: _82  and  _83
REMARK   36  A    between atoms: _85  and  _87
REMARK   37  A    between atoms: _87  and  _88
REMARK   38  A    between atoms: _87  and  _90
REMARK   39  A    between atoms: _90  and  _91
REMARK   40  A    between atoms: _94  and  _96
REMARK   41  A    between atoms: _96  and  _97
REMARK   42  A    between atoms: _96  and  _99
REMARK   43  A    between atoms: _99  and  _100
REMARK   44  A    between atoms: _102  and  _104
REMARK   45  A    between atoms: _104  and  _105
REMARK   46  A    between atoms: _104  and  _107
REMARK   47  A    between atoms: _107  and  _108
REMARK   48  A    between atoms: _113  and  _114
REMARK   49  A    between atoms: _116  and  _118
REMARK   50  A    between atoms: _118  and  _119
REMARK   51  A    between atoms: _118  and  _121
REMARK   52  A    between atoms: _121  and  _122
REMARK   53  A    between atoms: _127  and  _129
REMARK   54  A    between atoms: _129  and  _130
REMARK   55  A    between atoms: _133  and  _135
REMARK   56  A    between atoms: _135  and  _136
REMARK   57  A    between atoms: _135  and  _138
REMARK   58  A    between atoms: _138  and  _139
REMARK   59  A    between atoms: _139  and  _140
REMARK   60  A    between atoms: _145  and  _147
REMARK   61  A    between atoms: _147  and  _148
REMARK   62  A    between atoms: _147  and  _150
REMARK   63  A    between atoms: _150  and  _151
REMARK   64  A    between atoms: _156  and  _157
REMARK   65  A    between atoms: _159  and  _161
REMARK   66  A    between atoms: _161  and  _162
REMARK   67  A    between atoms: _161  and  _164
REMARK   68  A    between atoms: _164  and  _165
REMARK   69  A    between atoms: _165  and  _166
REMARK   70  A    between atoms: _168  and  _170
REMARK   71  A    between atoms: _170  and  _171
REMARK   72  A    between atoms: _170  and  _173
REMARK   73  A    between atoms: _173  and  _174
REMARK   74  A    between atoms: _177  and  _179
REMARK   75  A    between atoms: _179  and  _180
REMARK   76  A    between atoms: _179  and  _182
REMARK   77  A    between atoms: _182  and  _183
REMARK   78  A    between atoms: _186  and  _188
REMARK   79  A    between atoms: _188  and  _189
REMARK   80  A    between atoms: _188  and  _191
REMARK   81  A    between atoms: _191  and  _192
REMARK   82  A    between atoms: _195  and  _197
REMARK   83  A    between atoms: _197  and  _198
REMARK   84  A    between atoms: _197  and  _200
REMARK   85  A    between atoms: _200  and  _201
REMARK   86  A    between atoms: _204  and  _206
REMARK   87  A    between atoms: _206  and  _207
REMARK   88  A    between atoms: _206  and  _209
REMARK   89  A    between atoms: _209  and  _210
REMARK   90  A    between atoms: _217  and  _218
REMARK   91  A    between atoms: _223  and  _225
REMARK   92  A    between atoms: _225  and  _226
REMARK   93  A    between atoms: _225  and  _228
REMARK   94  A    between atoms: _228  and  _229
REMARK   95  A    between atoms: _234  and  _236
REMARK   96  A    between atoms: _236  and  _237
REMARK   97  A    between atoms: _236  and  _239
REMARK   98  A    between atoms: _239  and  _240
REMARK   99  A    between atoms: _242  and  _244
REMARK  100  A    between atoms: _244  and  _245
REMARK  101  A    between atoms: _244  and  _247
REMARK  102  A    between atoms: _247  and  _248
REMARK  103  A    between atoms: _248  and  _249
REMARK  104  A    between atoms: _254  and  _256
REMARK  105  A    between atoms: _256  and  _257
REMARK  106  A    between atoms: _256  and  _259
REMARK  107  A    between atoms: _259  and  _260
REMARK  108  A    between atoms: _262  and  _264
REMARK  109  A    between atoms: _264  and  _265
REMARK  110  A    between atoms: _267  and  _269
REMARK  111  A    between atoms: _269  and  _270
REMARK  112  A    between atoms: _269  and  _272
REMARK  113  A    between atoms: _272  and  _273
REMARK  114  A    between atoms: _276  and  _278
REMARK  115  A    between atoms: _278  and  _279
REMARK  116  A    between atoms: _278  and  _281
REMARK  117  A    between atoms: _281  and  _282
REMARK  118  A    between atoms: _287  and  _289
REMARK  119  A    between atoms: _289  and  _290
REMARK  120  A    between atoms: _289  and  _292
REMARK  121  A    between atoms: _292  and  _293
REMARK  122  A    between atoms: _296  and  _298
REMARK  123  A    between atoms: _298  and  _299
REMARK  124  A    between atoms: _302  and  _304
REMARK  125  A    between atoms: _304  and  _305
REMARK  126  A    between atoms: _304  and  _307
REMARK  127  A    between atoms: _307  and  _308
REMARK  128  A    between atoms: _313  and  _314
REMARK  129  A    between atoms: _316  and  _318
REMARK  130  A    between atoms: _318  and  _319
REMARK  131  A    between atoms: _318  and  _321
REMARK  132  A    between atoms: _321  and  _322
REMARK  133  A    between atoms: _327  and  _328
REMARK  134  A    between atoms: _330  and  _332
REMARK  135  A    between atoms: _332  and  _333
REMARK  136  A    between atoms: _332  and  _335
REMARK  137  A    between atoms: _335  and  _336
REMARK  138  A    between atoms: _336  and  _337
REMARK  139  A    between atoms: _342  and  _344
REMARK  140  A    between atoms: _344  and  _345
REMARK  141  A    between atoms: _344  and  _347
REMARK  142  A    between atoms: _350  and  _352
REMARK  143  A    between atoms: _352  and  _353
REMARK  144  A    between atoms: _352  and  _355
REMARK  145  A    between atoms: _358  and  _360
REMARK  146  A    between atoms: _360  and  _361
REMARK  147  A    between atoms: _360  and  _363
REMARK  148  A    between atoms: _363  and  _364
REMARK  149  A    between atoms: _364  and  _365
REMARK  150  A    between atoms: _365  and  _366
REMARK  151  A    between atoms: _375  and  _377
REMARK  152  A    between atoms: _377  and  _378
REMARK  153  A    between atoms: _381  and  _383
REMARK  154  A    between atoms: _383  and  _384
REMARK  155  A    between atoms: _383  and  _386
REMARK  156  A    between atoms: _386  and  _387
REMARK  157  A    between atoms: _389  and  _391
REMARK  158  A    between atoms: _391  and  _392
REMARK  159  A    between atoms: _391  and  _394
REMARK  160  A    between atoms: _394  and  _395
REMARK  161  A    between atoms: _400  and  _402
REMARK  162  A    between atoms: _402  and  _403
REMARK  163  A    between atoms: _402  and  _405
REMARK  164  A    between atoms: _405  and  _406
REMARK  165  A    between atoms: _416  and  _418
REMARK  166  A    between atoms: _418  and  _419
REMARK  167  A    between atoms: _418  and  _421
REMARK  168  A    between atoms: _421  and  _422
REMARK  169  A    between atoms: _425  and  _427
REMARK  170  A    between atoms: _427  and  _428
REMARK  171  A    between atoms: _427  and  _430
REMARK  172  A    between atoms: _430  and  _431
REMARK  173  A    between atoms: _436  and  _437
REMARK  174  A    between atoms: _439  and  _441
REMARK  175  A    between atoms: _441  and  _442
REMARK  176  A    between atoms: _444  and  _446
REMARK  177  A    between atoms: _446  and  _447
REMARK  178  A    between atoms: _446  and  _449
REMARK  179  A    between atoms: _449  and  _450
REMARK  180  A    between atoms: _460  and  _462
REMARK  181  A    between atoms: _462  and  _463
REMARK  182  A    between atoms: _462  and  _465
REMARK  183  A    between atoms: _465  and  _466
REMARK  184  A    between atoms: _468  and  _470
REMARK  185  A    between atoms: _470  and  _471
REMARK  186  A    between atoms: _473  and  _475
REMARK  187  A    between atoms: _475  and  _476
REMARK  188  A    between atoms: _475  and  _478
REMARK  189  A    between atoms: _478  and  _479
REMARK  190  A    between atoms: _482  and  _484
REMARK  191  A    between atoms: _484  and  _485
REMARK  192  A    between atoms: _484  and  _487
REMARK  193  A    between atoms: _487  and  _488
REMARK  194  A    between atoms: _493  and  _495
REMARK  195  A    between atoms: _495  and  _496
REMARK  196  A    between atoms: _495  and  _498
REMARK  197  A    between atoms: _498  and  _499
REMARK  198  A    between atoms: _504  and  _506
REMARK  199  A    between atoms: _506  and  _507
REMARK  200  A    between atoms: _506  and  _509
REMARK  201  A    between atoms: _509  and  _510
REMARK  202  A    between atoms: _517  and  _518
REMARK  203  A    between atoms: _523  and  _525
REMARK  204  A    between atoms: _525  and  _526
REMARK  205  A    between atoms: _525  and  _528
REMARK  206  A    between atoms: _528  and  _529
REMARK  207  A    between atoms: _532  and  _534
REMARK  208  A    between atoms: _534  and  _535
REMARK  209  A    between atoms: _534  and  _537
REMARK  210  A    between atoms: _537  and  _538
REMARK  211  A    between atoms: _540  and  _542
REMARK  212  A    between atoms: _542  and  _543
REMARK  213  A    between atoms: _542  and  _545
REMARK  214  A    between atoms: _545  and  _546
REMARK  215  A    between atoms: _551  and  _552
REMARK  216  A    between atoms: _554  and  _556
REMARK  217  A    between atoms: _556  and  _557
REMARK  218  A    between atoms: _556  and  _559
REMARK  219  A    between atoms: _559  and  _560
REMARK  220  A    between atoms: _562  and  _564
REMARK  221  A    between atoms: _564  and  _565
REMARK  222  A    between atoms: _564  and  _567
REMARK  223  A    between atoms: _567  and  _568
REMARK  224  A    between atoms: _571  and  _573
REMARK  225  A    between atoms: _573  and  _574
REMARK  226  A    between atoms: _573  and  _576
REMARK  227  A    between atoms: _576  and  _577
REMARK  228  A    between atoms: _582  and  _584
REMARK  229  A    between atoms: _584  and  _585
REMARK  230  A    between atoms: _584  and  _587
REMARK  231  A    between atoms: _587  and  _588
REMARK  232  A    between atoms: _594  and  _596
REMARK  233  A    between atoms: _596  and  _597
REMARK  234  A    between atoms: _601  and  _602
REMARK  235  A    between atoms: _607  and  _609
REMARK  236  A    between atoms: _609  and  _610
REMARK  237  A    between atoms: _609  and  _612
REMARK  238  A    between atoms: _612  and  _613
REMARK  239  A    between atoms: _618  and  _619
REMARK  240  A    between atoms: _621  and  _623
REMARK  241  A    between atoms: _623  and  _624
REMARK  242  A    between atoms: _623  and  _626
REMARK  243  A    between atoms: _626  and  _627
REMARK  244  A    between atoms: _627  and  _628
REMARK  245  A    between atoms: _628  and  _629
REMARK  246  A    between atoms: _629  and  _630
REMARK  247  A    between atoms: _634  and  _636
REMARK  248  A    between atoms: _636  and  _637
REMARK  249  A    between atoms: _636  and  _639
REMARK  250  A    between atoms: _639  and  _640
REMARK  251  A    between atoms: _640  and  _641
REMARK  252  A    between atoms: _646  and  _648
REMARK  253  A    between atoms: _648  and  _649
REMARK  254  A    between atoms: _648  and  _651
REMARK  255  A    between atoms: _651  and  _652
REMARK  256  A    between atoms: _655  and  _656
REMARK  257  A    between atoms: _661  and  _663
REMARK  258  A    between atoms: _663  and  _664
REMARK  259  A    between atoms: _663  and  _666
REMARK  260  A    between atoms: _666  and  _667
REMARK  261  A    between atoms: _673  and  _675
REMARK  262  A    between atoms: _675  and  _676
REMARK  263  A    between atoms: _678  and  _680
REMARK  264  A    between atoms: _680  and  _681
REMARK  265  A    between atoms: _680  and  _683
REMARK  266  A    between atoms: _683  and  _684
REMARK  267  A    between atoms: _689  and  _690
REMARK  268  A    between atoms: _692  and  _694
REMARK  269  A    between atoms: _694  and  _695
REMARK  270  A    between atoms: _694  and  _697
REMARK  271  A    between atoms: _697  and  _698
REMARK  272  A    between atoms: _701  and  _703
REMARK  273  A    between atoms: _703  and  _704
REMARK  274  A    between atoms: _703  and  _706
REMARK  275  A    between atoms: _706  and  _707
REMARK  276  A    between atoms: _712  and  _713
REMARK                            x       y       z     vdW  Elec       q    Type
REMARK                         _______ _______ _______ _____ _____    ______ ____
ROOT
ATOM      1  CA  SER A   1      18.493 -31.394 -16.366  0.00  0.00    +0.163 C 
ENDROOT
BRANCH   1   2
ATOM      2  N   SER A   1      19.335 -32.260 -17.190  0.00  0.00    -0.237 NA
ATOM      3  H   SER A   1      18.884 -33.017 -17.743  0.00  0.00    +0.142 HD
ENDBRANCH   1   2
BRANCH   1   4
ATOM      4  CB  SER A   1      17.717 -32.172 -15.296  0.00  0.00    +0.227 C 
ATOM      5  OG  SER A   1      17.025 -31.574 -14.472  0.00  0.00    -0.287 OA
ENDBRANCH   1   4
BRANCH   1   6
ATOM      6  C   SER A   1      17.510 -30.628 -17.262  0.00  0.00    +0.162 C 
BRANCH   6   7
ATOM      7  O   SER A   1      16.866 -31.510 -18.182  0.00  0.00    -0.380 OA
ATOM      8  H   SER A   1      16.367 -32.202 -17.680  0.00  0.00    +0.211 HD
ENDBRANCH   6   7
ENDBRANCH   1   6
TORSDOF 4
REMARK  Name = ../refined-set-2016/3m8u/3m8u_pocket.pdb
REMARK  276 active torsions:
REMARK  status: ('A' for Active; 'I' for Inactive)
REMARK    1  A    between atoms: _1  and  _3
REMARK    2  A    between atoms: _3  and  _4
REMARK    3  A    between atoms: _3  and  _6
REMARK    4  A    between atoms: _6  and  _7
REMARK    5  A    between atoms: _12  and  _14
REMARK    6  A    between atoms: _14  and  _15
REMARK    7  A    between atoms: _14  and  _17
REMARK    8  A    between atoms: _20  and  _22
REMARK    9  A    between atoms: _22  and  _23
REMARK   10  A    between atoms: _22  and  _25
REMARK   11  A    between atoms: _25  and  _26
REMARK   12  A    between atoms: _28  and  _30
REMARK   13  A    between atoms: _30  and  _31
REMARK   14  A    between atoms: _30  and  _33
REMARK   15  A    between atoms: _33  and  _34
REMARK   16  A    between atoms: _34  and  _35
REMARK   17  A    between atoms: _35  and  _36
REMARK   18  A    between atoms: _45  and  _47
REMARK   19  A    between atoms: _47  and  _48
REMARK   20  A    between atoms: _47  and  _50
REMARK   21  A    between atoms: _50  and  _51
REMARK   22  A    between atoms: _54  and  _56
REMARK   23  A    between atoms: _56  and  _57
REMARK   24  A    between atoms: _56  and  _59
REMARK   25  A    between atoms: _62  and  _64
REMARK   26  A    between atoms: _64  and  _65
REMARK   27  A    between atoms: _64  and  _67
REMARK   28  A    between atoms: _67  and  _68
REMARK   29  A    between atoms: _68  and  _69
REMARK   30  A    between atoms: _71  and  _73
REMARK   31  A    between atoms: _73  and  _74
REMARK   32  A    between atoms: _73  and  _76
REMARK   33  A    between atoms: _76  and  _77
REMARK   34  A    between atoms: _80  and  _82
REMARK   35  A    between atoms: _82  and  _83
REMARK   36  A    between atoms: _85  and  _87
REMARK   37  A    between atoms: _87  and  _88
REMARK   38  A    between atoms: _87  and  _90
REMARK   39  A    between atoms: _90  and  _91
REMARK   40  A    between atoms: _94  and  _96
REMARK   41  A    between atoms: _96  and  _97
REMARK   42  A    between atoms: _96  and  _99
REMARK   43  A    between atoms: _99  and  _100
REMARK   44  A    between atoms: _102  and  _104
REMARK   45  A    between atoms: _104  and  _105
REMARK   46  A    between atoms: _104  and  _107
REMARK   47  A    between atoms: _107  and  _108
REMARK   48  A    between atoms: _113  and  _114
REMARK   49  A    between atoms: _116  and  _118
REMARK   50  A    between atoms: _118  and  _119
REMARK   51  A    between atoms: _118  and  _121
REMARK   52  A    between atoms: _121  and  _122
REMARK   53  A    between atoms: _127  and  _129
REMARK   54  A    between atoms: _129  and  _130
REMARK   55  A    between atoms: _133  and  _135
REMARK   56  A    between atoms: _135  and  _136
REMARK   57  A    between atoms: _135  and  _138
REMARK   58  A    between atoms: _138  and  _139
REMARK   59  A    between atoms: _139  and  _140
REMARK   60  A    between atoms: _145  and  _147
REMARK   61  A    between atoms: _147  and  _148
REMARK   62  A    between atoms: _147  and  _150
REMARK   63  A    between atoms: _150  and  _151
REMARK   64  A    between atoms: _156  and  _157
REMARK   65  A    between atoms: _159  and  _161
REMARK   66  A    between atoms: _161  and  _162
REMARK   67  A    between atoms: _161  and  _164
REMARK   68  A    between atoms: _164  and  _165
REMARK   69  A    between atoms: _165  and  _166
REMARK   70  A    between atoms: _168  and  _170
REMARK   71  A    between atoms: _170  and  _171
REMARK   72  A    between atoms: _170  and  _173
REMARK   73  A    between atoms: _173  and  _174
REMARK   74  A    between atoms: _177  and  _179
REMARK   75  A    between atoms: _179  and  _180
REMARK   76  A    between atoms: _179  and  _182
REMARK   77  A    between atoms: _182  and  _183
REMARK   78  A    between atoms: _186  and  _188
REMARK   79  A    between atoms: _188  and  _189
REMARK   80  A    between atoms: _188  and  _191
REMARK   81  A    between atoms: _191  and  _192
REMARK   82  A    between atoms: _195  and  _197
REMARK   83  A    between atoms: _197  and  _198
REMARK   84  A    between atoms: _197  and  _200
REMARK   85  A    between atoms: _200  and  _201
REMARK   86  A    between atoms: _204  and  _206
REMARK   87  A    between atoms: _206  and  _207
REMARK   88  A    between atoms: _206  and  _209
REMARK   89  A    between atoms: _209  and  _210
REMARK   90  A    between atoms: _217  and  _218
REMARK   91  A    between atoms: _223  and  _225
REMARK   92  A    between atoms: _225  and  _226
REMARK   93  A    between atoms: _225  and  _228
REMARK   94  A    between atoms: _228  and  _229
REMARK   95  A    between atoms: _234  and  _236
REMARK   96  A    between atoms: _236  and  _237
REMARK   97  A    between atoms: _236  and  _239
REMARK   98  A    between atoms: _239  and  _240
REMARK   99  A    between atoms: _242  and  _244
REMARK  100  A    between atoms: _244  and  _245
REMARK  101  A    between atoms: _244  and  _247
REMARK  102  A    between atoms: _247  and  _248
REMARK  103  A    between atoms: _248  and  _249
REMARK  104  A    between atoms: _254  and  _256
REMARK  105  A    between atoms: _256  and  _257
REMARK  106  A    between atoms: _256  and  _259
REMARK  107  A    between atoms: _259  and  _260
REMARK  108  A    between atoms: _262  and  _264
REMARK  109  A    between atoms: _264  and  _265
REMARK  110  A    between atoms: _267  and  _269
REMARK  111  A    between atoms: _269  and  _270
REMARK  112  A    between atoms: _269  and  _272
REMARK  113  A    between atoms: _272  and  _273
REMARK  114  A    between atoms: _276  and  _278
REMARK  115  A    between atoms: _278  and  _279
REMARK  116  A    between atoms: _278  and  _281
REMARK  117  A    between atoms: _281  and  _282
REMARK  118  A    between atoms: _287  and  _289
REMARK  119  A    between atoms: _289  and  _290
REMARK  120  A    between atoms: _289  and  _292
REMARK  121  A    between atoms: _292  and  _293
REMARK  122  A    between atoms: _296  and  _298
REMARK  123  A    between atoms: _298  and  _299
REMARK  124  A    between atoms: _302  and  _304
REMARK  125  A    between atoms: _304  and  _305
REMARK  126  A    between atoms: _304  and  _307
REMARK  127  A    between atoms: _307  and  _308
REMARK  128  A    between atoms: _313  and  _314
REMARK  129  A    between atoms: _316  and  _318
REMARK  130  A    between atoms: _318  and  _319
REMARK  131  A    between atoms: _318  and  _321
REMARK  132  A    between atoms: _321  and  _322
REMARK  133  A    between atoms: _327  and  _328
REMARK  134  A    between atoms: _330  and  _332
REMARK  135  A    between atoms: _332  and  _333
REMARK  136  A    between atoms: _332  and  _335
REMARK  137  A    between atoms: _335  and  _336
REMARK  138  A    between atoms: _336  and  _337
REMARK  139  A    between atoms: _342  and  _344
REMARK  140  A    between atoms: _344  and  _345
REMARK  141  A    between atoms: _344  and  _347
REMARK  142  A    between atoms: _350  and  _352
REMARK  143  A    between atoms: _352  and  _353
REMARK  144  A    between atoms: _352  and  _355
REMARK  145  A    between atoms: _358  and  _360
REMARK  146  A    between atoms: _360  and  _361
REMARK  147  A    between atoms: _360  and  _363
REMARK  148  A    between atoms: _363  and  _364
REMARK  149  A    between atoms: _364  and  _365
REMARK  150  A    between atoms: _365  and  _366
REMARK  151  A    between atoms: _375  and  _377
REMARK  152  A    between atoms: _377  and  _378
REMARK  153  A    between atoms: _381  and  _383
REMARK  154  A    between atoms: _383  and  _384
REMARK  155  A    between atoms: _383  and  _386
REMARK  156  A    between atoms: _386  and  _387
REMARK  157  A    between atoms: _389  and  _391
REMARK  158  A    between atoms: _391  and  _392
REMARK  159  A    between atoms: _391  and  _394
REMARK  160  A    between atoms: _394  and  _395
REMARK  161  A    between atoms: _400  and  _402
REMARK  162  A    between atoms: _402  and  _403
REMARK  163  A    between atoms: _402  and  _405
REMARK  164  A    between atoms: _405  and  _406
REMARK  165  A    between atoms: _416  and  _418
REMARK  166  A    between atoms: _418  and  _419
REMARK  167  A    between atoms: _418  and  _421
REMARK  168  A    between atoms: _421  and  _422
REMARK  169  A    between atoms: _425  and  _427
REMARK  170  A    between atoms: _427  and  _428
REMARK  171  A    between atoms: _427  and  _430
REMARK  172  A    between atoms: _430  and  _431
REMARK  173  A    between atoms: _436  and  _437
REMARK  174  A    between atoms: _439  and  _441
REMARK  175  A    between atoms: _441  and  _442
REMARK  176  A    between atoms: _444  and  _446
REMARK  177  A    between atoms: _446  and  _447
REMARK  178  A    between atoms: _446  and  _449
REMARK  179  A    between atoms: _449  and  _450
REMARK  180  A    between atoms: _460  and  _462
REMARK  181  A    between atoms: _462  and  _463
REMARK  182  A    between atoms: _462  and  _465
REMARK  183  A    between atoms: _465  and  _466
REMARK  184  A    between atoms: _468  and  _470
REMARK  185  A    between atoms: _470  and  _471
REMARK  186  A    between atoms: _473  and  _475
REMARK  187  A    between atoms: _475  and  _476
REMARK  188  A    between atoms: _475  and  _478
REMARK  189  A    between atoms: _478  and  _479
REMARK  190  A    between atoms: _482  and  _484
REMARK  191  A    between atoms: _484  and  _485
REMARK  192  A    between atoms: _484  and  _487
REMARK  193  A    between atoms: _487  and  _488
REMARK  194  A    between atoms: _493  and  _495
REMARK  195  A    between atoms: _495  and  _496
REMARK  196  A    between atoms: _495  and  _498
REMARK  197  A    between atoms: _498  and  _499
REMARK  198  A    between atoms: _504  and  _506
REMARK  199  A    between atoms: _506  and  _507
REMARK  200  A    between atoms: _506  and  _509
REMARK  201  A    between atoms: _509  and  _510
REMARK  202  A    between atoms: _517  and  _518
REMARK  203  A    between atoms: _523  and  _525
REMARK  204  A    between atoms: _525  and  _526
REMARK  205  A    between atoms: _525  and  _528
REMARK  206  A    between atoms: _528  and  _529
REMARK  207  A    between atoms: _532  and  _534
REMARK  208  A    between atoms: _534  and  _535
REMARK  209  A    between atoms: _534  and  _537
REMARK  210  A    between atoms: _537  and  _538
REMARK  211  A    between atoms: _540  and  _542
REMARK  212  A    between atoms: _542  and  _543
REMARK  213  A    between atoms: _542  and  _545
REMARK  214  A    between atoms: _545  and  _546
REMARK  215  A    between atoms: _551  and  _552
REMARK  216  A    between atoms: _554  and  _556
REMARK  217  A    between atoms: _556  and  _557
REMARK  218  A    between atoms: _556  and  _559
REMARK  219  A    between atoms: _559  and  _560
REMARK  220  A    between atoms: _562  and  _564
REMARK  221  A    between atoms: _564  and  _565
REMARK  222  A    between atoms: _564  and  _567
REMARK  223  A    between atoms: _567  and  _568
REMARK  224  A    between atoms: _571  and  _573
REMARK  225  A    between atoms: _573  and  _574
REMARK  226  A    between atoms: _573  and  _576
REMARK  227  A    between atoms: _576  and  _577
REMARK  228  A    between atoms: _582  and  _584
REMARK  229  A    between atoms: _584  and  _585
REMARK  230  A    between atoms: _584  and  _587
REMARK  231  A    between atoms: _587  and  _588
REMARK  232  A    between atoms: _594  and  _596
REMARK  233  A    between atoms: _596  and  _597
REMARK  234  A    between atoms: _601  and  _602
REMARK  235  A    between atoms: _607  and  _609
REMARK  236  A    between atoms: _609  and  _610
REMARK  237  A    between atoms: _609  and  _612
REMARK  238  A    between atoms: _612  and  _613
REMARK  239  A    between atoms: _618  and  _619
REMARK  240  A    between atoms: _621  and  _623
REMARK  241  A    between atoms: _623  and  _624
REMARK  242  A    between atoms: _623  and  _626
REMARK  243  A    between atoms: _626  and  _627
REMARK  244  A    between atoms: _627  and  _628
REMARK  245  A    between atoms: _628  and  _629
REMARK  246  A    between atoms: _629  and  _630
REMARK  247  A    between atoms: _634  and  _636
REMARK  248  A    between atoms: _636  and  _637
REMARK  249  A    between atoms: _636  and  _639
REMARK  250  A    between atoms: _639  and  _640
REMARK  251  A    between atoms: _640  and  _641
REMARK  252  A    between atoms: _646  and  _648
REMARK  253  A    between atoms: _648  and  _649
REMARK  254  A    between atoms: _648  and  _651
REMARK  255  A    between atoms: _651  and  _652
REMARK  256  A    between atoms: _655  and  _656
REMARK  257  A    between atoms: _661  and  _663
REMARK  258  A    between atoms: _663  and  _664
REMARK  259  A    between atoms: _663  and  _666
REMARK  260  A    between atoms: _666  and  _667
REMARK  261  A    between atoms: _673  and  _675
REMARK  262  A    between atoms: _675  and  _676
REMARK  263  A    between atoms: _678  and  _680
REMARK  264  A    between atoms: _680  and  _681
REMARK  265  A    between atoms: _680  and  _683
REMARK  266  A    between atoms: _683  and  _684
REMARK  267  A    between atoms: _689  and  _690
REMARK  268  A    between atoms: _692  and  _694
REMARK  269  A    between atoms: _694  and  _695
REMARK  270  A    between atoms: _694  and  _697
REMARK  271  A    between atoms: _697  and  _698
REMARK  272  A    between atoms: _701  and  _703
REMARK  273  A    between atoms: _703  and  _704
REMARK  274  A    between atoms: _703  and  _706
REMARK  275  A    between atoms: _706  and  _707
REMARK  276  A    between atoms: _712  and  _713
REMARK                            x       y       z     vdW  Elec       q    Type
REMARK                         _______ _______ _______ _____ _____    ______ ____
ROOT
ATOM      1  CG  TYR A   1      19.813 -31.466 -11.228  0.00  0.00    -0.020 A 
ATOM      2  CD2 TYR A   1      19.508 -30.216 -10.716  0.00  0.00    -0.001 A 
ATOM      3  CE2 TYR A   1      19.815 -29.049 -11.416  0.00  0.00    +0.036 A 
ATOM      4  CZ  TYR A   1      20.434 -29.134 -12.646  0.00  0.00    +0.134 A 
ATOM      5  CE1 TYR A   1      20.746 -30.374 -13.187  0.00  0.00    +0.036 A 
ATOM      6  CD1 TYR A   1      20.432 -31.532 -12.478  0.00  0.00    -0.001 A 
ENDROOT
BRANCH   4   7
ATOM      7  OH  TYR A   1      20.732 -27.970 -13.333  0.00  0.00    -0.506 OA
ATOM      8  HH  TYR A   1      19.896 -27.470 -13.511  0.00  0.00    +0.292 HD
ENDBRANCH   4   7
BRANCH   1   9
ATOM      9  CB  TYR A   1      19.472 -32.715 -10.451  0.00  0.00    +0.051 C 
BRANCH   9  10
ATOM     10  CA  TYR A   1      19.340 -33.991 -11.285  0.00  0.00    +0.137 C 
BRANCH  10  11
ATOM     11  N   TYR A   1      18.291 -33.849 -12.289  0.00  0.00    -0.239 NA
ATOM     12  H   TYR A   1      17.636 -33.043 -12.235  0.00  0.00    +0.142 HD
ENDBRANCH  10  11
BRANCH  10  13
ATOM     13  C   TYR A   1      19.100 -35.177 -10.346  0.00  0.00    +0.224 C 
ATOM     14  O   TYR A   1      20.047 -35.729  -9.789  0.00  0.00    -0.287 OA
ENDBRANCH  10  13
ENDBRANCH   9  10
ENDBRANCH   1   9
TORSDOF 5
REMARK  Name = ../refined-set-2016/3m8u/3m8u_pocket.pdb
REMARK  276 active torsions:
REMARK  status: ('A' for Active; 'I' for Inactive)
REMARK    1  A    between atoms: _1  and  _3
REMARK    2  A    between atoms: _3  and  _4
REMARK    3  A    between atoms: _3  and  _6
REMARK    4  A    between atoms: _6  and  _7
REMARK    5  A    between atoms: _12  and  _14
REMARK    6  A    between atoms: _14  and  _15
REMARK    7  A    between atoms: _14  and  _17
REMARK    8  A    between atoms: _20  and  _22
REMARK    9  A    between atoms: _22  and  _23
REMARK   10  A    between atoms: _22  and  _25
REMARK   11  A    between atoms: _25  and  _26
REMARK   12  A    between atoms: _28  and  _30
REMARK   13  A    between atoms: _30  and  _31
REMARK   14  A    between atoms: _30  and  _33
REMARK   15  A    between atoms: _33  and  _34
REMARK   16  A    between atoms: _34  and  _35
REMARK   17  A    between atoms: _35  and  _36
REMARK   18  A    between atoms: _45  and  _47
REMARK   19  A    between atoms: _47  and  _48
REMARK   20  A    between atoms: _47  and  _50
REMARK   21  A    between atoms: _50  and  _51
REMARK   22  A    between atoms: _54  and  _56
REMARK   23  A    between atoms: _56  and  _57
REMARK   24  A    between atoms: _56  and  _59
REMARK   25  A    between atoms: _62  and  _64
REMARK   26  A    between atoms: _64  and  _65
REMARK   27  A    between atoms: _64  and  _67
REMARK   28  A    between atoms: _67  and  _68
REMARK   29  A    between atoms: _68  and  _69
REMARK   30  A    between atoms: _71  and  _73
REMARK   31  A    between atoms: _73  and  _74
REMARK   32  A    between atoms: _73  and  _76
REMARK   33  A    between atoms: _76  and  _77
REMARK   34  A    between atoms: _80  and  _82
REMARK   35  A    between atoms: _82  and  _83
REMARK   36  A    between atoms: _85  and  _87
REMARK   37  A    between atoms: _87  and  _88
REMARK   38  A    between atoms: _87  and  _90
REMARK   39  A    between atoms: _90  and  _91
REMARK   40  A    between atoms: _94  and  _96
REMARK   41  A    between atoms: _96  and  _97
REMARK   42  A    between atoms: _96  and  _99
REMARK   43  A    between atoms: _99  and  _100
REMARK   44  A    between atoms: _102  and  _104
REMARK   45  A    between atoms: _104  and  _105
REMARK   46  A    between atoms: _104  and  _107
REMARK   47  A    between atoms: _107  and  _108
REMARK   48  A    between atoms: _113  and  _114
REMARK   49  A    between atoms: _116  and  _118
REMARK   50  A    between atoms: _118  and  _119
REMARK   51  A    between atoms: _118  and  _121
REMARK   52  A    between atoms: _121  and  _122
REMARK   53  A    between atoms: _127  and  _129
REMARK   54  A    between atoms: _129  and  _130
REMARK   55  A    between atoms: _133  and  _135
REMARK   56  A    between atoms: _135  and  _136
REMARK   57  A    between atoms: _135  and  _138
REMARK   58  A    between atoms: _138  and  _139
REMARK   59  A    between atoms: _139  and  _140
REMARK   60  A    between atoms: _145  and  _147
REMARK   61  A    between atoms: _147  and  _148
REMARK   62  A    between atoms: _147  and  _150
REMARK   63  A    between atoms: _150  and  _151
REMARK   64  A    between atoms: _156  and  _157
REMARK   65  A    between atoms: _159  and  _161
REMARK   66  A    between atoms: _161  and  _162
REMARK   67  A    between atoms: _161  and  _164
REMARK   68  A    between atoms: _164  and  _165
REMARK   69  A    between atoms: _165  and  _166
REMARK   70  A    between atoms: _168  and  _170
REMARK   71  A    between atoms: _170  and  _171
REMARK   72  A    between atoms: _170  and  _173
REMARK   73  A    between atoms: _173  and  _174
REMARK   74  A    between atoms: _177  and  _179
REMARK   75  A    between atoms: _179  and  _180
REMARK   76  A    between atoms: _179  and  _182
REMARK   77  A    between atoms: _182  and  _183
REMARK   78  A    between atoms: _186  and  _188
REMARK   79  A    between atoms: _188  and  _189
REMARK   80  A    between atoms: _188  and  _191
REMARK   81  A    between atoms: _191  and  _192
REMARK   82  A    between atoms: _195  and  _197
REMARK   83  A    between atoms: _197  and  _198
REMARK   84  A    between atoms: _197  and  _200
REMARK   85  A    between atoms: _200  and  _201
REMARK   86  A    between atoms: _204  and  _206
REMARK   87  A    between atoms: _206  and  _207
REMARK   88  A    between atoms: _206  and  _209
REMARK   89  A    between atoms: _209  and  _210
REMARK   90  A    between atoms: _217  and  _218
REMARK   91  A    between atoms: _223  and  _225
REMARK   92  A    between atoms: _225  and  _226
REMARK   93  A    between atoms: _225  and  _228
REMARK   94  A    between atoms: _228  and  _229
REMARK   95  A    between atoms: _234  and  _236
REMARK   96  A    between atoms: _236  and  _237
REMARK   97  A    between atoms: _236  and  _239
REMARK   98  A    between atoms: _239  and  _240
REMARK   99  A    between atoms: _242  and  _244
REMARK  100  A    between atoms: _244  and  _245
REMARK  101  A    between atoms: _244  and  _247
REMARK  102  A    between atoms: _247  and  _248
REMARK  103  A    between atoms: _248  and  _249
REMARK  104  A    between atoms: _254  and  _256
REMARK  105  A    between atoms: _256  and  _257
REMARK  106  A    between atoms: _256  and  _259
REMARK  107  A    between atoms: _259  and  _260
REMARK  108  A    between atoms: _262  and  _264
REMARK  109  A    between atoms: _264  and  _265
REMARK  110  A    between atoms: _267  and  _269
REMARK  111  A    between atoms: _269  and  _270
REMARK  112  A    between atoms: _269  and  _272
REMARK  113  A    between atoms: _272  and  _273
REMARK  114  A    between atoms: _276  and  _278
REMARK  115  A    between atoms: _278  and  _279
REMARK  116  A    between atoms: _278  and  _281
REMARK  117  A    between atoms: _281  and  _282
REMARK  118  A    between atoms: _287  and  _289
REMARK  119  A    between atoms: _289  and  _290
REMARK  120  A    between atoms: _289  and  _292
REMARK  121  A    between atoms: _292  and  _293
REMARK  122  A    between atoms: _296  and  _298
REMARK  123  A    between atoms: _298  and  _299
REMARK  124  A    between atoms: _302  and  _304
REMARK  125  A    between atoms: _304  and  _305
REMARK  126  A    between atoms: _304  and  _307
REMARK  127  A    between atoms: _307  and  _308
REMARK  128  A    between atoms: _313  and  _314
REMARK  129  A    between atoms: _316  and  _318
REMARK  130  A    between atoms: _318  and  _319
REMARK  131  A    between atoms: _318  and  _321
REMARK  132  A    between atoms: _321  and  _322
REMARK  133  A    between atoms: _327  and  _328
REMARK  134  A    between atoms: _330  and  _332
REMARK  135  A    between atoms: _332  and  _333
REMARK  136  A    between atoms: _332  and  _335
REMARK  137  A    between atoms: _335  and  _336
REMARK  138  A    between atoms: _336  and  _337
REMARK  139  A    between atoms: _342  and  _344
REMARK  140  A    between atoms: _344  and  _345
REMARK  141  A    between atoms: _344  and  _347
REMARK  142  A    between atoms: _350  and  _352
REMARK  143  A    between atoms: _352  and  _353
REMARK  144  A    between atoms: _352  and  _355
REMARK  145  A    between atoms: _358  and  _360
REMARK  146  A    between atoms: _360  and  _361
REMARK  147  A    between atoms: _360  and  _363
REMARK  148  A    between atoms: _363  and  _364
REMARK  149  A    between atoms: _364  and  _365
REMARK  150  A    between atoms: _365  and  _366
REMARK  151  A    between atoms: _375  and  _377
REMARK  152  A    between atoms: _377  and  _378
REMARK  153  A    between atoms: _381  and  _383
REMARK  154  A    between atoms: _383  and  _384
REMARK  155  A    between atoms: _383  and  _386
REMARK  156  A    between atoms: _386  and  _387
REMARK  157  A    between atoms: _389  and  _391
REMARK  158  A    between atoms: _391  and  _392
REMARK  159  A    between atoms: _391  and  _394
REMARK  160  A    between atoms: _394  and  _395
REMARK  161  A    between atoms: _400  and  _402
REMARK  162  A    between atoms: _402  and  _403
REMARK  163  A    between atoms: _402  and  _405
REMARK  164  A    between atoms: _405  and  _406
REMARK  165  A    between atoms: _416  and  _418
REMARK  166  A    between atoms: _418  and  _419
REMARK  167  A    between atoms: _418  and  _421
REMARK  168  A    between atoms: _421  and  _422
REMARK  169  A    between atoms: _425  and  _427
REMARK  170  A    between atoms: _427  and  _428
REMARK  171  A    between atoms: _427  and  _430
REMARK  172  A    between atoms: _430  and  _431
REMARK  173  A    between atoms: _436  and  _437
REMARK  174  A    between atoms: _439  and  _441
REMARK  175  A    between atoms: _441  and  _442
REMARK  176  A    between atoms: _444  and  _446
REMARK  177  A    between atoms: _446  and  _447
REMARK  178  A    between atoms: _446  and  _449
REMARK  179  A    between atoms: _449  and  _450
REMARK  180  A    between atoms: _460  and  _462
REMARK  181  A    between atoms: _462  and  _463
REMARK  182  A    between atoms: _462  and  _465
REMARK  183  A    between atoms: _465  and  _466
REMARK  184  A    between atoms: _468  and  _470
REMARK  185  A    between atoms: _470  and  _471
REMARK  186  A    between atoms: _473  and  _475
REMARK  187  A    between atoms: _475  and  _476
REMARK  188  A    between atoms: _475  and  _478
REMARK  189  A    between atoms: _478  and  _479
REMARK  190  A    between atoms: _482  and  _484
REMARK  191  A    between atoms: _484  and  _485
REMARK  192  A    between atoms: _484  and  _487
REMARK  193  A    between atoms: _487  and  _488
REMARK  194  A    between atoms: _493  and  _495
REMARK  195  A    between atoms: _495  and  _496
REMARK  196  A    between atoms: _495  and  _498
REMARK  197  A    between atoms: _498  and  _499
REMARK  198  A    between atoms: _504  and  _506
REMARK  199  A    between atoms: _506  and  _507
REMARK  200  A    between atoms: _506  and  _509
REMARK  201  A    between atoms: _509  and  _510
REMARK  202  A    between atoms: _517  and  _518
REMARK  203  A    between atoms: _523  and  _525
REMARK  204  A    between atoms: _525  and  _526
REMARK  205  A    between atoms: _525  and  _528
REMARK  206  A    between atoms: _528  and  _529
REMARK  207  A    between atoms: _532  and  _534
REMARK  208  A    between atoms: _534  and  _535
REMARK  209  A    between atoms: _534  and  _537
REMARK  210  A    between atoms: _537  and  _538
REMARK  211  A    between atoms: _540  and  _542
REMARK  212  A    between atoms: _542  and  _543
REMARK  213  A    between atoms: _542  and  _545
REMARK  214  A    between atoms: _545  and  _546
REMARK  215  A    between atoms: _551  and  _552
REMARK  216  A    between atoms: _554  and  _556
REMARK  217  A    between atoms: _556  and  _557
REMARK  218  A    between atoms: _556  and  _559
REMARK  219  A    between atoms: _559  and  _560
REMARK  220  A    between atoms: _562  and  _564
REMARK  221  A    between atoms: _564  and  _565
REMARK  222  A    between atoms: _564  and  _567
REMARK  223  A    between atoms: _567  and  _568
REMARK  224  A    between atoms: _571  and  _573
REMARK  225  A    between atoms: _573  and  _574
REMARK  226  A    between atoms: _573  and  _576
REMARK  227  A    between atoms: _576  and  _577
REMARK  228  A    between atoms: _582  and  _584
REMARK  229  A    between atoms: _584  and  _585
REMARK  230  A    between atoms: _584  and  _587
REMARK  231  A    between atoms: _587  and  _588
REMARK  232  A    between atoms: _594  and  _596
REMARK  233  A    between atoms: _596  and  _597
REMARK  234  A    between atoms: _601  and  _602
REMARK  235  A    between atoms: _607  and  _609
REMARK  236  A    between atoms: _609  and  _610
REMARK  237  A    between atoms: _609  and  _612
REMARK  238  A    between atoms: _612  and  _613
REMARK  239  A    between atoms: _618  and  _619
REMARK  240  A    between atoms: _621  and  _623
REMARK  241  A    between atoms: _623  and  _624
REMARK  242  A    between atoms: _623  and  _626
REMARK  243  A    between atoms: _626  and  _627
REMARK  244  A    between atoms: _627  and  _628
REMARK  245  A    between atoms: _628  and  _629
REMARK  246  A    between atoms: _629  and  _630
REMARK  247  A    between atoms: _634  and  _636
REMARK  248  A    between atoms: _636  and  _637
REMARK  249  A    between atoms: _636  and  _639
REMARK  250  A    between atoms: _639  and  _640
REMARK  251  A    between atoms: _640  and  _641
REMARK  252  A    between atoms: _646  and  _648
REMARK  253  A    between atoms: _648  and  _649
REMARK  254  A    between atoms: _648  and  _651
REMARK  255  A    between atoms: _651  and  _652
REMARK  256  A    between atoms: _655  and  _656
REMARK  257  A    between atoms: _661  and  _663
REMARK  258  A    between atoms: _663  and  _664
REMARK  259  A    between atoms: _663  and  _666
REMARK  260  A    between atoms: _666  and  _667
REMARK  261  A    between atoms: _673  and  _675
REMARK  262  A    between atoms: _675  and  _676
REMARK  263  A    between atoms: _678  and  _680
REMARK  264  A    between atoms: _680  and  _681
REMARK  265  A    between atoms: _680  and  _683
REMARK  266  A    between atoms: _683  and  _684
REMARK  267  A    between atoms: _689  and  _690
REMARK  268  A    between atoms: _692  and  _694
REMARK  269  A    between atoms: _694  and  _695
REMARK  270  A    between atoms: _694  and  _697
REMARK  271  A    between atoms: _697  and  _698
REMARK  272  A    between atoms: _701  and  _703
REMARK  273  A    between atoms: _703  and  _704
REMARK  274  A    between atoms: _703  and  _706
REMARK  275  A    between atoms: _706  and  _707
REMARK  276  A    between atoms: _712  and  _713
REMARK                            x       y       z     vdW  Elec       q    Type
REMARK                         _______ _______ _______ _____ _____    ______ ____
ROOT
ATOM      1  C   ASN A   3       7.916 -11.448  -8.669  0.00  0.00    +0.241 C 
ATOM      2  N   PHE A   4       8.945 -10.706  -8.262  0.00  0.00    -0.297 N 
ATOM      3  H   PHE A   4       9.859 -11.162  -8.064  0.00  0.00    +0.150 HD
ATOM      4  O   ASN A   3       6.802 -10.977  -8.869  0.00  0.00    -0.273 OA
ENDROOT
BRANCH   1   5
ATOM      5  CA  ASN A   3       8.156 -12.933  -8.935  0.00  0.00    +0.158 C 
BRANCH   5   8
ATOM      6  C   ILE A   2       7.464 -14.113  -6.904  0.00  0.00    +0.241 C 
ATOM      7  O   ILE A   2       8.560 -13.925  -6.378  0.00  0.00    -0.273 OA
ATOM      8  N   ASN A   3       7.201 -13.735  -8.156  0.00  0.00    -0.297 N 
ATOM      9  H   ASN A   3       6.299 -14.014  -8.592  0.00  0.00    +0.150 HD
BRANCH   6  10
ATOM     10  CA  ILE A   2       6.347 -14.822  -6.123  0.00  0.00    +0.148 C 
BRANCH  10  12
ATOM     11  C   SER A   1       6.823 -17.218  -5.952  0.00  0.00    +0.241 C 
ATOM     12  N   ILE A   2       6.907 -15.991  -5.448  0.00  0.00    -0.297 N 
ATOM     13  H   ILE A   2       7.391 -15.857  -4.537  0.00  0.00    +0.150 HD
ATOM     14  O   SER A   1       6.073 -17.513  -6.871  0.00  0.00    -0.274 OA
BRANCH  11  15
ATOM     15  CA  SER A   1       7.712 -18.273  -5.307  0.00  0.00    +0.174 C 
BRANCH  15  16
ATOM     16  N   SER A   1       7.432 -19.610  -5.832  0.00  0.00    -0.236 NA
ATOM     17  H   SER A   1       7.892 -19.930  -6.708  0.00  0.00    +0.142 HD
ENDBRANCH  15  16
BRANCH  15  18
ATOM     18  CB  SER A   1       9.180 -17.908  -5.537  0.00  0.00    +0.163 C 
BRANCH  18  19
ATOM     19  OG  SER A   1       9.400 -17.597  -6.904  0.00  0.00    -0.380 OA
ATOM     20  H   SER A   1      10.352 -17.363  -7.039  0.00  0.00    +0.211 HD
ENDBRANCH  18  19
ENDBRANCH  15  18
ENDBRANCH  11  15
ENDBRANCH  10  12
BRANCH  10  21
ATOM     21  CB  ILE A   2       5.766 -13.810  -5.102  0.00  0.00    +0.027 C 
ATOM     22  CG2 ILE A   2       5.195 -12.591  -5.814  0.00  0.00    +0.002 C 
BRANCH  21  23
ATOM     23  CG1 ILE A   2       4.701 -14.461  -4.212  0.00  0.00    +0.002 C 
ATOM     24  CD1 ILE A   2       3.489 -14.980  -4.952  0.00  0.00    +0.000 C 
ENDBRANCH  21  23
ENDBRANCH  10  21
ENDBRANCH   6  10
ENDBRANCH   5   8
BRANCH   5  25
ATOM     25  CB  ASN A   3       7.964 -13.119 -10.451  0.00  0.00    +0.114 C 
BRANCH  25  26
ATOM     26  CG  ASN A   3       8.292 -14.522 -10.955  0.00  0.00    +0.222 C 
ATOM     27  ND2 ASN A   3       9.259 -15.197 -10.329  0.00  0.00    -0.329 N 
ATOM     28 HD21 ASN A   3       9.745 -14.773  -9.513  0.00  0.00    +0.145 HD
ATOM     29 HD22 ASN A   3       9.526 -16.147 -10.657  0.00  0.00    +0.145 HD
ATOM     30  OD1 ASN A   3       7.681 -14.980 -11.931  0.00  0.00    -0.275 OA
ENDBRANCH  25  26
ENDBRANCH   5  25
ENDBRANCH   1   5
BRANCH   2  31
ATOM     31  CA  PHE A   4       8.808  -9.250  -8.088  0.00  0.00    +0.153 C 
BRANCH  31  32
ATOM     32  C   PHE A   4       9.631  -8.467  -9.100  0.00  0.00    +0.241 C 
ATOM     33  O   PHE A   4      10.768  -8.820  -9.385  0.00  0.00    -0.273 OA
ATOM     34  N   ALA A   5       9.066  -7.371  -9.603  0.00  0.00    -0.297 N 
ATOM     35  H   ALA A   5       8.070  -7.166  -9.387  0.00  0.00    +0.150 HD
BRANCH  34  36
ATOM     36  CA  ALA A   5       9.814  -6.454 -10.449  0.00  0.00    +0.149 C 
ATOM     37  CB  ALA A   5       9.403  -6.603 -11.903  0.00  0.00    +0.031 C 
BRANCH  36  38
ATOM     38  C   ALA A   5       9.549  -5.043  -9.954  0.00  0.00    +0.244 C 
ATOM     39  N   PRO A   6      10.402  -4.553  -9.045  0.00  0.00    -0.273 N 
ATOM     40  CD  PRO A   6      11.493  -5.263  -8.360  0.00  0.00    +0.094 C 
ATOM     41  CG  PRO A   6      11.494  -4.621  -7.007  0.00  0.00    +0.024 C 
ATOM     42  CB  PRO A   6      11.050  -3.187  -7.226  0.00  0.00    +0.030 C 
ATOM     43  CA  PRO A   6      10.240  -3.187  -8.534  0.00  0.00    +0.140 C 
ATOM     44  O   ALA A   5       8.561  -4.415 -10.346  0.00  0.00    -0.273 OA
BRANCH  43  45
ATOM     45  C   PRO A   6      10.831  -2.194  -9.518  0.00  0.00    +0.227 C 
ATOM     46  O   PRO A   6      11.997  -2.338  -9.892  0.00  0.00    -0.286 OA
ENDBRANCH  43  45
ENDBRANCH  36  38
ENDBRANCH  34  36
ENDBRANCH  31  32
BRANCH  31  47
ATOM     47  CB  PHE A   4       9.257  -8.817  -6.687  0.00  0.00    +0.055 C 
BRANCH  47  48
ATOM     48  CG  PHE A   4       8.340  -9.268  -5.587  0.00  0.00    -0.020 A 
ATOM     49  CD2 PHE A   4       8.689 -10.334  -4.770  0.00  0.00    -0.004 A 
ATOM     50  CE2 PHE A   4       7.849 -10.751  -3.759  0.00  0.00    -0.000 A 
ATOM     51  CZ  PHE A   4       6.656 -10.104  -3.545  0.00  0.00    -0.000 A 
ATOM     52  CE1 PHE A   4       6.298  -9.034  -4.340  0.00  0.00    -0.000 A 
ATOM     53  CD1 PHE A   4       7.137  -8.622  -5.361  0.00  0.00    -0.004 A 
ENDBRANCH  47  48
ENDBRANCH  31  47
ENDBRANCH   2  31
TORSDOF 19
REMARK  Name = ../refined-set-2016/3m8u/3m8u_pocket.pdb
REMARK  276 active torsions:
REMARK  status: ('A' for Active; 'I' for Inactive)
REMARK    1  A    between atoms: _1  and  _3
REMARK    2  A    between atoms: _3  and  _4
REMARK    3  A    between atoms: _3  and  _6
REMARK    4  A    between atoms: _6  and  _7
REMARK    5  A    between atoms: _12  and  _14
REMARK    6  A    between atoms: _14  and  _15
REMARK    7  A    between atoms: _14  and  _17
REMARK    8  A    between atoms: _20  and  _22
REMARK    9  A    between atoms: _22  and  _23
REMARK   10  A    between atoms: _22  and  _25
REMARK   11  A    between atoms: _25  and  _26
REMARK   12  A    between atoms: _28  and  _30
REMARK   13  A    between atoms: _30  and  _31
REMARK   14  A    between atoms: _30  and  _33
REMARK   15  A    between atoms: _33  and  _34
REMARK   16  A    between atoms: _34  and  _35
REMARK   17  A    between atoms: _35  and  _36
REMARK   18  A    between atoms: _45  and  _47
REMARK   19  A    between atoms: _47  and  _48
REMARK   20  A    between atoms: _47  and  _50
REMARK   21  A    between atoms: _50  and  _51
REMARK   22  A    between atoms: _54  and  _56
REMARK   23  A    between atoms: _56  and  _57
REMARK   24  A    between atoms: _56  and  _59
REMARK   25  A    between atoms: _62  and  _64
REMARK   26  A    between atoms: _64  and  _65
REMARK   27  A    between atoms: _64  and  _67
REMARK   28  A    between atoms: _67  and  _68
REMARK   29  A    between atoms: _68  and  _69
REMARK   30  A    between atoms: _71  and  _73
REMARK   31  A    between atoms: _73  and  _74
REMARK   32  A    between atoms: _73  and  _76
REMARK   33  A    between atoms: _76  and  _77
REMARK   34  A    between atoms: _80  and  _82
REMARK   35  A    between atoms: _82  and  _83
REMARK   36  A    between atoms: _85  and  _87
REMARK   37  A    between atoms: _87  and  _88
REMARK   38  A    between atoms: _87  and  _90
REMARK   39  A    between atoms: _90  and  _91
REMARK   40  A    between atoms: _94  and  _96
REMARK   41  A    between atoms: _96  and  _97
REMARK   42  A    between atoms: _96  and  _99
REMARK   43  A    between atoms: _99  and  _100
REMARK   44  A    between atoms: _102  and  _104
REMARK   45  A    between atoms: _104  and  _105
REMARK   46  A    between atoms: _104  and  _107
REMARK   47  A    between atoms: _107  and  _108
REMARK   48  A    between atoms: _113  and  _114
REMARK   49  A    between atoms: _116  and  _118
REMARK   50  A    between atoms: _118  and  _119
REMARK   51  A    between atoms: _118  and  _121
REMARK   52  A    between atoms: _121  and  _122
REMARK   53  A    between atoms: _127  and  _129
REMARK   54  A    between atoms: _129  and  _130
REMARK   55  A    between atoms: _133  and  _135
REMARK   56  A    between atoms: _135  and  _136
REMARK   57  A    between atoms: _135  and  _138
REMARK   58  A    between atoms: _138  and  _139
REMARK   59  A    between atoms: _139  and  _140
REMARK   60  A    between atoms: _145  and  _147
REMARK   61  A    between atoms: _147  and  _148
REMARK   62  A    between atoms: _147  and  _150
REMARK   63  A    between atoms: _150  and  _151
REMARK   64  A    between atoms: _156  and  _157
REMARK   65  A    between atoms: _159  and  _161
REMARK   66  A    between atoms: _161  and  _162
REMARK   67  A    between atoms: _161  and  _164
REMARK   68  A    between atoms: _164  and  _165
REMARK   69  A    between atoms: _165  and  _166
REMARK   70  A    between atoms: _168  and  _170
REMARK   71  A    between atoms: _170  and  _171
REMARK   72  A    between atoms: _170  and  _173
REMARK   73  A    between atoms: _173  and  _174
REMARK   74  A    between atoms: _177  and  _179
REMARK   75  A    between atoms: _179  and  _180
REMARK   76  A    between atoms: _179  and  _182
REMARK   77  A    between atoms: _182  and  _183
REMARK   78  A    between atoms: _186  and  _188
REMARK   79  A    between atoms: _188  and  _189
REMARK   80  A    between atoms: _188  and  _191
REMARK   81  A    between atoms: _191  and  _192
REMARK   82  A    between atoms: _195  and  _197
REMARK   83  A    between atoms: _197  and  _198
REMARK   84  A    between atoms: _197  and  _200
REMARK   85  A    between atoms: _200  and  _201
REMARK   86  A    between atoms: _204  and  _206
REMARK   87  A    between atoms: _206  and  _207
REMARK   88  A    between atoms: _206  and  _209
REMARK   89  A    between atoms: _209  and  _210
REMARK   90  A    between atoms: _217  and  _218
REMARK   91  A    between atoms: _223  and  _225
REMARK   92  A    between atoms: _225  and  _226
REMARK   93  A    between atoms: _225  and  _228
REMARK   94  A    between atoms: _228  and  _229
REMARK   95  A    between atoms: _234  and  _236
REMARK   96  A    between atoms: _236  and  _237
REMARK   97  A    between atoms: _236  and  _239
REMARK   98  A    between atoms: _239  and  _240
REMARK   99  A    between atoms: _242  and  _244
REMARK  100  A    between atoms: _244  and  _245
REMARK  101  A    between atoms: _244  and  _247
REMARK  102  A    between atoms: _247  and  _248
REMARK  103  A    between atoms: _248  and  _249
REMARK  104  A    between atoms: _254  and  _256
REMARK  105  A    between atoms: _256  and  _257
REMARK  106  A    between atoms: _256  and  _259
REMARK  107  A    between atoms: _259  and  _260
REMARK  108  A    between atoms: _262  and  _264
REMARK  109  A    between atoms: _264  and  _265
REMARK  110  A    between atoms: _267  and  _269
REMARK  111  A    between atoms: _269  and  _270
REMARK  112  A    between atoms: _269  and  _272
REMARK  113  A    between atoms: _272  and  _273
REMARK  114  A    between atoms: _276  and  _278
REMARK  115  A    between atoms: _278  and  _279
REMARK  116  A    between atoms: _278  and  _281
REMARK  117  A    between atoms: _281  and  _282
REMARK  118  A    between atoms: _287  and  _289
REMARK  119  A    between atoms: _289  and  _290
REMARK  120  A    between atoms: _289  and  _292
REMARK  121  A    between atoms: _292  and  _293
REMARK  122  A    between atoms: _296  and  _298
REMARK  123  A    between atoms: _298  and  _299
REMARK  124  A    between atoms: _302  and  _304
REMARK  125  A    between atoms: _304  and  _305
REMARK  126  A    between atoms: _304  and  _307
REMARK  127  A    between atoms: _307  and  _308
REMARK  128  A    between atoms: _313  and  _314
REMARK  129  A    between atoms: _316  and  _318
REMARK  130  A    between atoms: _318  and  _319
REMARK  131  A    between atoms: _318  and  _321
REMARK  132  A    between atoms: _321  and  _322
REMARK  133  A    between atoms: _327  and  _328
REMARK  134  A    between atoms: _330  and  _332
REMARK  135  A    between atoms: _332  and  _333
REMARK  136  A    between atoms: _332  and  _335
REMARK  137  A    between atoms: _335  and  _336
REMARK  138  A    between atoms: _336  and  _337
REMARK  139  A    between atoms: _342  and  _344
REMARK  140  A    between atoms: _344  and  _345
REMARK  141  A    between atoms: _344  and  _347
REMARK  142  A    between atoms: _350  and  _352
REMARK  143  A    between atoms: _352  and  _353
REMARK  144  A    between atoms: _352  and  _355
REMARK  145  A    between atoms: _358  and  _360
REMARK  146  A    between atoms: _360  and  _361
REMARK  147  A    between atoms: _360  and  _363
REMARK  148  A    between atoms: _363  and  _364
REMARK  149  A    between atoms: _364  and  _365
REMARK  150  A    between atoms: _365  and  _366
REMARK  151  A    between atoms: _375  and  _377
REMARK  152  A    between atoms: _377  and  _378
REMARK  153  A    between atoms: _381  and  _383
REMARK  154  A    between atoms: _383  and  _384
REMARK  155  A    between atoms: _383  and  _386
REMARK  156  A    between atoms: _386  and  _387
REMARK  157  A    between atoms: _389  and  _391
REMARK  158  A    between atoms: _391  and  _392
REMARK  159  A    between atoms: _391  and  _394
REMARK  160  A    between atoms: _394  and  _395
REMARK  161  A    between atoms: _400  and  _402
REMARK  162  A    between atoms: _402  and  _403
REMARK  163  A    between atoms: _402  and  _405
REMARK  164  A    between atoms: _405  and  _406
REMARK  165  A    between atoms: _416  and  _418
REMARK  166  A    between atoms: _418  and  _419
REMARK  167  A    between atoms: _418  and  _421
REMARK  168  A    between atoms: _421  and  _422
REMARK  169  A    between atoms: _425  and  _427
REMARK  170  A    between atoms: _427  and  _428
REMARK  171  A    between atoms: _427  and  _430
REMARK  172  A    between atoms: _430  and  _431
REMARK  173  A    between atoms: _436  and  _437
REMARK  174  A    between atoms: _439  and  _441
REMARK  175  A    between atoms: _441  and  _442
REMARK  176  A    between atoms: _444  and  _446
REMARK  177  A    between atoms: _446  and  _447
REMARK  178  A    between atoms: _446  and  _449
REMARK  179  A    between atoms: _449  and  _450
REMARK  180  A    between atoms: _460  and  _462
REMARK  181  A    between atoms: _462  and  _463
REMARK  182  A    between atoms: _462  and  _465
REMARK  183  A    between atoms: _465  and  _466
REMARK  184  A    between atoms: _468  and  _470
REMARK  185  A    between atoms: _470  and  _471
REMARK  186  A    between atoms: _473  and  _475
REMARK  187  A    between atoms: _475  and  _476
REMARK  188  A    between atoms: _475  and  _478
REMARK  189  A    between atoms: _478  and  _479
REMARK  190  A    between atoms: _482  and  _484
REMARK  191  A    between atoms: _484  and  _485
REMARK  192  A    between atoms: _484  and  _487
REMARK  193  A    between atoms: _487  and  _488
REMARK  194  A    between atoms: _493  and  _495
REMARK  195  A    between atoms: _495  and  _496
REMARK  196  A    between atoms: _495  and  _498
REMARK  197  A    between atoms: _498  and  _499
REMARK  198  A    between atoms: _504  and  _506
REMARK  199  A    between atoms: _506  and  _507
REMARK  200  A    between atoms: _506  and  _509
REMARK  201  A    between atoms: _509  and  _510
REMARK  202  A    between atoms: _517  and  _518
REMARK  203  A    between atoms: _523  and  _525
REMARK  204  A    between atoms: _525  and  _526
REMARK  205  A    between atoms: _525  and  _528
REMARK  206  A    between atoms: _528  and  _529
REMARK  207  A    between atoms: _532  and  _534
REMARK  208  A    between atoms: _534  and  _535
REMARK  209  A    between atoms: _534  and  _537
REMARK  210  A    between atoms: _537  and  _538
REMARK  211  A    between atoms: _540  and  _542
REMARK  212  A    between atoms: _542  and  _543
REMARK  213  A    between atoms: _542  and  _545
REMARK  214  A    between atoms: _545  and  _546
REMARK  215  A    between atoms: _551  and  _552
REMARK  216  A    between atoms: _554  and  _556
REMARK  217  A    between atoms: _556  and  _557
REMARK  218  A    between atoms: _556  and  _559
REMARK  219  A    between atoms: _559  and  _560
REMARK  220  A    between atoms: _562  and  _564
REMARK  221  A    between atoms: _564  and  _565
REMARK  222  A    between atoms: _564  and  _567
REMARK  223  A    between atoms: _567  and  _568
REMARK  224  A    between atoms: _571  and  _573
REMARK  225  A    between atoms: _573  and  _574
REMARK  226  A    between atoms: _573  and  _576
REMARK  227  A    between atoms: _576  and  _577
REMARK  228  A    between atoms: _582  and  _584
REMARK  229  A    between atoms: _584  and  _585
REMARK  230  A    between atoms: _584  and  _587
REMARK  231  A    between atoms: _587  and  _588
REMARK  232  A    between atoms: _594  and  _596
REMARK  233  A    between atoms: _596  and  _597
REMARK  234  A    between atoms: _601  and  _602
REMARK  235  A    between atoms: _607  and  _609
REMARK  236  A    between atoms: _609  and  _610
REMARK  237  A    between atoms: _609  and  _612
REMARK  238  A    between atoms: _612  and  _613
REMARK  239  A    between atoms: _618  and  _619
REMARK  240  A    between atoms: _621  and  _623
REMARK  241  A    between atoms: _623  and  _624
REMARK  242  A    between atoms: _623  and  _626
REMARK  243  A    between atoms: _626  and  _627
REMARK  244  A    between atoms: _627  and  _628
REMARK  245  A    between atoms: _628  and  _629
REMARK  246  A    between atoms: _629  and  _630
REMARK  247  A    between atoms: _634  and  _636
REMARK  248  A    between atoms: _636  and  _637
REMARK  249  A    between atoms: _636  and  _639
REMARK  250  A    between atoms: _639  and  _640
REMARK  251  A    between atoms: _640  and  _641
REMARK  252  A    between atoms: _646  and  _648
REMARK  253  A    between atoms: _648  and  _649
REMARK  254  A    between atoms: _648  and  _651
REMARK  255  A    between atoms: _651  and  _652
REMARK  256  A    between atoms: _655  and  _656
REMARK  257  A    between atoms: _661  and  _663
REMARK  258  A    between atoms: _663  and  _664
REMARK  259  A    between atoms: _663  and  _666
REMARK  260  A    between atoms: _666  and  _667
REMARK  261  A    between atoms: _673  and  _675
REMARK  262  A    between atoms: _675  and  _676
REMARK  263  A    between atoms: _678  and  _680
REMARK  264  A    between atoms: _680  and  _681
REMARK  265  A    between atoms: _680  and  _683
REMARK  266  A    between atoms: _683  and  _684
REMARK  267  A    between atoms: _689  and  _690
REMARK  268  A    between atoms: _692  and  _694
REMARK  269  A    between atoms: _694  and  _695
REMARK  270  A    between atoms: _694  and  _697
REMARK  271  A    between atoms: _697  and  _698
REMARK  272  A    between atoms: _701  and  _703
REMARK  273  A    between atoms: _703  and  _704
REMARK  274  A    between atoms: _703  and  _706
REMARK  275  A    between atoms: _706  and  _707
REMARK  276  A    between atoms: _712  and  _713
REMARK                            x       y       z     vdW  Elec       q    Type
REMARK                         _______ _______ _______ _____ _____    ______ ____
ROOT
ATOM      1  C   PRO A   5       6.411 -16.137 -16.886  0.00  0.00    +0.241 C 
ATOM      2  O   PRO A   5       6.273 -16.834 -15.882  0.00  0.00    -0.273 OA
ATOM      3  N   PHE A   6       7.525 -16.117 -17.623  0.00  0.00    -0.297 N 
ATOM      4  H   PHE A   6       7.587 -15.460 -18.427  0.00  0.00    +0.150 HD
ENDROOT
BRANCH   1   8
ATOM      5  C   SER A   4       6.609 -13.219 -17.540  0.00  0.00    +0.246 C 
ATOM      6  O   SER A   4       6.978 -13.337 -16.377  0.00  0.00    -0.273 OA
ATOM      7  N   PRO A   5       5.746 -14.073 -18.104  0.00  0.00    -0.272 N 
ATOM      8  CA  PRO A   5       5.267 -15.221 -17.325  0.00  0.00    +0.152 C 
ATOM      9  CB  PRO A   5       4.342 -15.956 -18.301  0.00  0.00    +0.031 C 
ATOM     10  CG  PRO A   5       4.749 -15.490 -19.659  0.00  0.00    +0.024 C 
ATOM     11  CD  PRO A   5       5.284 -14.103 -19.502  0.00  0.00    +0.094 C 
BRANCH   5  12
ATOM     12  CA  SER A   4       7.153 -12.085 -18.406  0.00  0.00    +0.178 C 
BRANCH  12  14
ATOM     13  C   GLN A   3       6.209 -10.089 -17.332  0.00  0.00    +0.241 C 
ATOM     14  N   SER A   4       7.252 -10.867 -17.609  0.00  0.00    -0.295 N 
ATOM     15  H   SER A   4       8.185 -10.593 -17.239  0.00  0.00    +0.150 HD
ATOM     16  O   GLN A   3       5.100 -10.200 -17.882  0.00  0.00    -0.273 OA
BRANCH  13  17
ATOM     17  CA  GLN A   3       6.455  -8.998 -16.293  0.00  0.00    +0.149 C 
BRANCH  17  19
ATOM     18  C   LYS A   2       5.988  -7.145 -17.786  0.00  0.00    +0.241 C 
ATOM     19  N   GLN A   3       5.706  -7.807 -16.668  0.00  0.00    -0.297 N 
ATOM     20  H   GLN A   3       4.939  -7.469 -16.052  0.00  0.00    +0.150 HD
ATOM     21  O   LYS A   2       7.005  -7.356 -18.453  0.00  0.00    -0.273 OA
BRANCH  18  22
ATOM     22  CA  LYS A   2       4.993  -6.071 -18.208  0.00  0.00    +0.149 C 
BRANCH  22  25
ATOM     23  C   TYR A   1       5.322  -3.658 -18.083  0.00  0.00    +0.239 C 
ATOM     24  O   TYR A   1       4.325  -3.509 -17.379  0.00  0.00    -0.274 OA
ATOM     25  N   LYS A   2       5.696  -4.843 -18.564  0.00  0.00    -0.297 N 
ATOM     26  H   LYS A   2       6.510  -4.894 -19.210  0.00  0.00    +0.150 HD
BRANCH  23  27
ATOM     27  CA  TYR A   1       6.205  -2.461 -18.452  0.00  0.00    +0.149 C 
BRANCH  27  28
ATOM     28  N   TYR A   1       5.399  -1.273 -18.698  0.00  0.00    -0.238 NA
ATOM     29  H   TYR A   1       5.387  -0.501 -18.002  0.00  0.00    +0.142 HD
ENDBRANCH  27  28
BRANCH  27  30
ATOM     30  CB  TYR A   1       7.246  -2.217 -17.350  0.00  0.00    +0.053 C 
BRANCH  30  31
ATOM     31  CG  TYR A   1       7.992  -3.478 -17.006  0.00  0.00    -0.020 A 
ATOM     32  CD2 TYR A   1       7.760  -4.143 -15.810  0.00  0.00    -0.001 A 
ATOM     33  CE2 TYR A   1       8.424  -5.312 -15.508  0.00  0.00    +0.036 A 
ATOM     34  CZ  TYR A   1       9.334  -5.828 -16.400  0.00  0.00    +0.134 A 
ATOM     35  CE1 TYR A   1       9.570  -5.193 -17.602  0.00  0.00    +0.036 A 
ATOM     36  CD1 TYR A   1       8.902  -4.024 -17.896  0.00  0.00    -0.001 A 
BRANCH  34  37
ATOM     37  OH  TYR A   1       9.999  -7.006 -16.114  0.00  0.00    -0.506 OA
ATOM     38  HH  TYR A   1      10.521  -6.895 -15.280  0.00  0.00    +0.292 HD
ENDBRANCH  34  37
ENDBRANCH  30  31
ENDBRANCH  27  30
ENDBRANCH  23  27
ENDBRANCH  22  25
BRANCH  22  39
ATOM     39  CB  LYS A   2       4.158  -6.584 -19.385  0.00  0.00    +0.029 C 
BRANCH  39  40
ATOM     40  CG  LYS A   2       3.051  -5.629 -19.817  0.00  0.00    +0.000 C 
BRANCH  40  41
ATOM     41  CD  LYS A   2       2.123  -6.269 -20.848  0.00  0.00    -0.024 C 
BRANCH  41  42
ATOM     42  CE  LYS A   2       0.933  -5.362 -21.152  0.00  0.00    -0.086 C 
BRANCH  42  43
ATOM     43  NZ  LYS A   2      -0.096  -6.034 -21.998  0.00  0.00    +0.380 N 
ATOM     44  HZ1 LYS A   2      -0.453  -6.877 -21.504  0.00  0.00    -0.089 HD
ATOM     45  HZ2 LYS A   2      -0.881  -5.376 -22.175  0.00  0.00    -0.089 HD
ATOM     46  HZ3 LYS A   2       0.332  -6.316 -22.903  0.00  0.00    -0.089 HD
ENDBRANCH  42  43
ENDBRANCH  41  42
ENDBRANCH  40  41
ENDBRANCH  39  40
ENDBRANCH  22  39
ENDBRANCH  18  22
ENDBRANCH  17  19
BRANCH  17  47
ATOM     47  CB  GLN A   3       6.012  -9.500 -14.918  0.00  0.00    +0.039 C 
BRANCH  47  48
ATOM     48  CG  GLN A   3       6.483  -8.623 -13.753  0.00  0.00    +0.087 C 
BRANCH  48  49
ATOM     49  CD  GLN A   3       6.119  -9.211 -12.399  0.00  0.00    +0.219 C 
ATOM     50  NE2 GLN A   3       7.118  -9.711 -11.683  0.00  0.00    -0.329 N 
ATOM     51 HE21 GLN A   3       6.930 -10.128 -10.749  0.00  0.00    +0.145 HD
ATOM     52 HE22 GLN A   3       8.089  -9.686 -12.056  0.00  0.00    +0.145 HD
ATOM     53  OE1 GLN A   3       4.958  -9.217 -12.004  0.00  0.00    -0.275 OA
ENDBRANCH  48  49
ENDBRANCH  47  48
ENDBRANCH  17  47
ENDBRANCH  13  17
ENDBRANCH  12  14
BRANCH  12  54
ATOM     54  CB  SER A   4       8.558 -12.463 -18.906  0.00  0.00    +0.166 C 
BRANCH  54  55
ATOM     55  OG  SER A   4       8.612 -13.798 -19.372  0.00  0.00    -0.380 OA
ATOM     56  H   SER A   4       7.975 -13.911 -20.122  0.00  0.00    +0.211 HD
ENDBRANCH  54  55
ENDBRANCH  12  54
ENDBRANCH   5  12
ENDBRANCH   1   8
BRANCH   3  57
ATOM     57  CA  PHE A   6       8.660 -16.993 -17.331  0.00  0.00    +0.153 C 
BRANCH  57  58
ATOM     58  C   PHE A   6       9.712 -16.324 -16.450  0.00  0.00    +0.241 C 
ATOM     59  O   PHE A   6      10.668 -16.981 -16.041  0.00  0.00    -0.273 OA
ATOM     60  N   GLY A   7       9.550 -15.025 -16.175  0.00  0.00    -0.295 N 
ATOM     61  H   GLY A   7       8.764 -14.506 -16.616  0.00  0.00    +0.150 HD
BRANCH  60  62
ATOM     62  CA  GLY A   7      10.452 -14.319 -15.269  0.00  0.00    +0.176 C 
BRANCH  62  63
ATOM     63  C   GLY A   7      11.407 -13.341 -15.943  0.00  0.00    +0.243 C 
ATOM     64  O   GLY A   7      12.038 -12.525 -15.263  0.00  0.00    -0.273 OA
ATOM     65  N   TYR A   8      11.506 -13.408 -17.271  0.00  0.00    -0.297 N 
ATOM     66  H   TYR A   8      10.862 -14.036 -17.793  0.00  0.00    +0.150 HD
BRANCH  65  67
ATOM     67  CA  TYR A   8      12.497 -12.623 -18.021  0.00  0.00    +0.153 C 
BRANCH  67  68
ATOM     68  C   TYR A   8      12.232 -11.123 -17.962  0.00  0.00    +0.241 C 
ATOM     69  O   TYR A   8      11.113 -10.684 -17.719  0.00  0.00    -0.273 OA
ATOM     70  N   THR A   9      13.291 -10.348 -18.177  0.00  0.00    -0.295 N 
ATOM     71  H   THR A   9      14.231 -10.789 -18.229  0.00  0.00    +0.150 HD
BRANCH  70  72
ATOM     72  CA  THR A   9      13.183  -8.904 -18.342  0.00  0.00    +0.176 C 
BRANCH  72  73
ATOM     73  C   THR A   9      13.170  -8.585 -19.838  0.00  0.00    +0.243 C 
ATOM     74  N   TYR A  10      11.994  -8.267 -20.361  0.00  0.00    -0.298 N 
ATOM     75  H   TYR A  10      11.158  -8.231 -19.743  0.00  0.00    +0.150 HD
ATOM     76  O   THR A   9      14.208  -8.646 -20.501  0.00  0.00    -0.273 OA
BRANCH  74  77
ATOM     77  CA  TYR A  10      11.841  -7.966 -21.780  0.00  0.00    +0.141 C 
BRANCH  77  78
ATOM     78  C   TYR A  10      11.351  -6.533 -21.885  0.00  0.00    +0.227 C 
ATOM     79  O   TYR A  10      10.272  -6.211 -21.390  0.00  0.00    -0.286 OA
ENDBRANCH  77  78
BRANCH  77  80
ATOM     80  CB  TYR A  10      10.827  -8.912 -22.425  0.00  0.00    +0.054 C 
BRANCH  80  81
ATOM     81  CG  TYR A  10      10.684  -8.686 -23.899  0.00  0.00    -0.020 A 
ATOM     82  CD2 TYR A  10       9.575  -8.017 -24.417  0.00  0.00    -0.001 A 
ATOM     83  CE2 TYR A  10       9.443  -7.801 -25.786  0.00  0.00    +0.036 A 
ATOM     84  CZ  TYR A  10      10.430  -8.244 -26.647  0.00  0.00    +0.134 A 
ATOM     85  CE1 TYR A  10      11.549  -8.894 -26.155  0.00  0.00    +0.036 A 
ATOM     86  CD1 TYR A  10      11.669  -9.115 -24.783  0.00  0.00    -0.001 A 
BRANCH  84  87
ATOM     87  OH  TYR A  10      10.307  -8.023 -28.007  0.00  0.00    -0.506 OA
ATOM     88  HH  TYR A  10      10.312  -8.891 -28.483  0.00  0.00    +0.292 HD
ENDBRANCH  84  87
ENDBRANCH  80  81
ENDBRANCH  77  80
ENDBRANCH  74  77
ENDBRANCH  72  73
BRANCH  72  89
ATOM     89  CB  THR A   9      14.373  -8.179 -17.685  0.00  0.00    +0.137 C 
ATOM     90  CG2 THR A   9      14.313  -6.675 -17.955  0.00  0.00    +0.034 C 
BRANCH  89  91
ATOM     91  OG1 THR A   9      14.357  -8.411 -16.272  0.00  0.00    -0.382 OA
ATOM     92  HG1 THR A   9      15.123  -7.944 -15.853  0.00  0.00    +0.210 HD
ENDBRANCH  89  91
ENDBRANCH  72  89
ENDBRANCH  70  72
ENDBRANCH  67  68
BRANCH  67  93
ATOM     93  CB  TYR A   8      12.553 -13.084 -19.496  0.00  0.00    +0.055 C 
BRANCH  93  94
ATOM     94  CG  TYR A   8      13.037 -14.506 -19.622  0.00  0.00    -0.020 A 
ATOM     95  CD2 TYR A   8      14.344 -14.834 -19.297  0.00  0.00    -0.001 A 
ATOM     96  CE2 TYR A   8      14.794 -16.133 -19.363  0.00  0.00    +0.036 A 
ATOM     97  CZ  TYR A   8      13.942 -17.130 -19.780  0.00  0.00    +0.134 A 
ATOM     98  CE1 TYR A   8      12.631 -16.842 -20.105  0.00  0.00    +0.036 A 
ATOM     99  CD1 TYR A   8      12.185 -15.524 -20.026  0.00  0.00    -0.001 A 
BRANCH  97 100
ATOM    100  OH  TYR A   8      14.402 -18.426 -19.846  0.00  0.00    -0.506 OA
ATOM    101  HH  TYR A   8      13.873 -18.994 -19.231  0.00  0.00    +0.292 HD
ENDBRANCH  97 100
ENDBRANCH  93  94
ENDBRANCH  67  93
ENDBRANCH  65  67
ENDBRANCH  62  63
ENDBRANCH  60  62
ENDBRANCH  57  58
BRANCH  57 102
ATOM    102  CB  PHE A   6       9.321 -17.451 -18.634  0.00  0.00    +0.055 C 
BRANCH 102 103
ATOM    103  CG  PHE A   6       8.335 -17.815 -19.703  0.00  0.00    -0.020 A 
ATOM    104  CD2 PHE A   6       7.312 -18.719 -19.442  0.00  0.00    -0.004 A 
ATOM    105  CE2 PHE A   6       6.391 -19.045 -20.428  0.00  0.00    -0.000 A 
ATOM    106  CZ  PHE A   6       6.486 -18.465 -21.679  0.00  0.00    -0.000 A 
ATOM    107  CE1 PHE A   6       7.493 -17.559 -21.945  0.00  0.00    -0.000 A 
ATOM    108  CD1 PHE A   6       8.411 -17.236 -20.958  0.00  0.00    -0.004 A 
ENDBRANCH 102 103
ENDBRANCH  57 102
ENDBRANCH   3  57
TORSDOF 42
REMARK  Name = ../refined-set-2016/3m8u/3m8u_pocket.pdb
REMARK  276 active torsions:
REMARK  status: ('A' for Active; 'I' for Inactive)
REMARK    1  A    between atoms: _1  and  _3
REMARK    2  A    between atoms: _3  and  _4
REMARK    3  A    between atoms: _3  and  _6
REMARK    4  A    between atoms: _6  and  _7
REMARK    5  A    between atoms: _12  and  _14
REMARK    6  A    between atoms: _14  and  _15
REMARK    7  A    between atoms: _14  and  _17
REMARK    8  A    between atoms: _20  and  _22
REMARK    9  A    between atoms: _22  and  _23
REMARK   10  A    between atoms: _22  and  _25
REMARK   11  A    between atoms: _25  and  _26
REMARK   12  A    between atoms: _28  and  _30
REMARK   13  A    between atoms: _30  and  _31
REMARK   14  A    between atoms: _30  and  _33
REMARK   15  A    between atoms: _33  and  _34
REMARK   16  A    between atoms: _34  and  _35
REMARK   17  A    between atoms: _35  and  _36
REMARK   18  A    between atoms: _45  and  _47
REMARK   19  A    between atoms: _47  and  _48
REMARK   20  A    between atoms: _47  and  _50
REMARK   21  A    between atoms: _50  and  _51
REMARK   22  A    between atoms: _54  and  _56
REMARK   23  A    between atoms: _56  and  _57
REMARK   24  A    between atoms: _56  and  _59
REMARK   25  A    between atoms: _62  and  _64
REMARK   26  A    between atoms: _64  and  _65
REMARK   27  A    between atoms: _64  and  _67
REMARK   28  A    between atoms: _67  and  _68
REMARK   29  A    between atoms: _68  and  _69
REMARK   30  A    between atoms: _71  and  _73
REMARK   31  A    between atoms: _73  and  _74
REMARK   32  A    between atoms: _73  and  _76
REMARK   33  A    between atoms: _76  and  _77
REMARK   34  A    between atoms: _80  and  _82
REMARK   35  A    between atoms: _82  and  _83
REMARK   36  A    between atoms: _85  and  _87
REMARK   37  A    between atoms: _87  and  _88
REMARK   38  A    between atoms: _87  and  _90
REMARK   39  A    between atoms: _90  and  _91
REMARK   40  A    between atoms: _94  and  _96
REMARK   41  A    between atoms: _96  and  _97
REMARK   42  A    between atoms: _96  and  _99
REMARK   43  A    between atoms: _99  and  _100
REMARK   44  A    between atoms: _102  and  _104
REMARK   45  A    between atoms: _104  and  _105
REMARK   46  A    between atoms: _104  and  _107
REMARK   47  A    between atoms: _107  and  _108
REMARK   48  A    between atoms: _113  and  _114
REMARK   49  A    between atoms: _116  and  _118
REMARK   50  A    between atoms: _118  and  _119
REMARK   51  A    between atoms: _118  and  _121
REMARK   52  A    between atoms: _121  and  _122
REMARK   53  A    between atoms: _127  and  _129
REMARK   54  A    between atoms: _129  and  _130
REMARK   55  A    between atoms: _133  and  _135
REMARK   56  A    between atoms: _135  and  _136
REMARK   57  A    between atoms: _135  and  _138
REMARK   58  A    between atoms: _138  and  _139
REMARK   59  A    between atoms: _139  and  _140
REMARK   60  A    between atoms: _145  and  _147
REMARK   61  A    between atoms: _147  and  _148
REMARK   62  A    between atoms: _147  and  _150
REMARK   63  A    between atoms: _150  and  _151
REMARK   64  A    between atoms: _156  and  _157
REMARK   65  A    between atoms: _159  and  _161
REMARK   66  A    between atoms: _161  and  _162
REMARK   67  A    between atoms: _161  and  _164
REMARK   68  A    between atoms: _164  and  _165
REMARK   69  A    between atoms: _165  and  _166
REMARK   70  A    between atoms: _168  and  _170
REMARK   71  A    between atoms: _170  and  _171
REMARK   72  A    between atoms: _170  and  _173
REMARK   73  A    between atoms: _173  and  _174
REMARK   74  A    between atoms: _177  and  _179
REMARK   75  A    between atoms: _179  and  _180
REMARK   76  A    between atoms: _179  and  _182
REMARK   77  A    between atoms: _182  and  _183
REMARK   78  A    between atoms: _186  and  _188
REMARK   79  A    between atoms: _188  and  _189
REMARK   80  A    between atoms: _188  and  _191
REMARK   81  A    between atoms: _191  and  _192
REMARK   82  A    between atoms: _195  and  _197
REMARK   83  A    between atoms: _197  and  _198
REMARK   84  A    between atoms: _197  and  _200
REMARK   85  A    between atoms: _200  and  _201
REMARK   86  A    between atoms: _204  and  _206
REMARK   87  A    between atoms: _206  and  _207
REMARK   88  A    between atoms: _206  and  _209
REMARK   89  A    between atoms: _209  and  _210
REMARK   90  A    between atoms: _217  and  _218
REMARK   91  A    between atoms: _223  and  _225
REMARK   92  A    between atoms: _225  and  _226
REMARK   93  A    between atoms: _225  and  _228
REMARK   94  A    between atoms: _228  and  _229
REMARK   95  A    between atoms: _234  and  _236
REMARK   96  A    between atoms: _236  and  _237
REMARK   97  A    between atoms: _236  and  _239
REMARK   98  A    between atoms: _239  and  _240
REMARK   99  A    between atoms: _242  and  _244
REMARK  100  A    between atoms: _244  and  _245
REMARK  101  A    between atoms: _244  and  _247
REMARK  102  A    between atoms: _247  and  _248
REMARK  103  A    between atoms: _248  and  _249
REMARK  104  A    between atoms: _254  and  _256
REMARK  105  A    between atoms: _256  and  _257
REMARK  106  A    between atoms: _256  and  _259
REMARK  107  A    between atoms: _259  and  _260
REMARK  108  A    between atoms: _262  and  _264
REMARK  109  A    between atoms: _264  and  _265
REMARK  110  A    between atoms: _267  and  _269
REMARK  111  A    between atoms: _269  and  _270
REMARK  112  A    between atoms: _269  and  _272
REMARK  113  A    between atoms: _272  and  _273
REMARK  114  A    between atoms: _276  and  _278
REMARK  115  A    between atoms: _278  and  _279
REMARK  116  A    between atoms: _278  and  _281
REMARK  117  A    between atoms: _281  and  _282
REMARK  118  A    between atoms: _287  and  _289
REMARK  119  A    between atoms: _289  and  _290
REMARK  120  A    between atoms: _289  and  _292
REMARK  121  A    between atoms: _292  and  _293
REMARK  122  A    between atoms: _296  and  _298
REMARK  123  A    between atoms: _298  and  _299
REMARK  124  A    between atoms: _302  and  _304
REMARK  125  A    between atoms: _304  and  _305
REMARK  126  A    between atoms: _304  and  _307
REMARK  127  A    between atoms: _307  and  _308
REMARK  128  A    between atoms: _313  and  _314
REMARK  129  A    between atoms: _316  and  _318
REMARK  130  A    between atoms: _318  and  _319
REMARK  131  A    between atoms: _318  and  _321
REMARK  132  A    between atoms: _321  and  _322
REMARK  133  A    between atoms: _327  and  _328
REMARK  134  A    between atoms: _330  and  _332
REMARK  135  A    between atoms: _332  and  _333
REMARK  136  A    between atoms: _332  and  _335
REMARK  137  A    between atoms: _335  and  _336
REMARK  138  A    between atoms: _336  and  _337
REMARK  139  A    between atoms: _342  and  _344
REMARK  140  A    between atoms: _344  and  _345
REMARK  141  A    between atoms: _344  and  _347
REMARK  142  A    between atoms: _350  and  _352
REMARK  143  A    between atoms: _352  and  _353
REMARK  144  A    between atoms: _352  and  _355
REMARK  145  A    between atoms: _358  and  _360
REMARK  146  A    between atoms: _360  and  _361
REMARK  147  A    between atoms: _360  and  _363
REMARK  148  A    between atoms: _363  and  _364
REMARK  149  A    between atoms: _364  and  _365
REMARK  150  A    between atoms: _365  and  _366
REMARK  151  A    between atoms: _375  and  _377
REMARK  152  A    between atoms: _377  and  _378
REMARK  153  A    between atoms: _381  and  _383
REMARK  154  A    between atoms: _383  and  _384
REMARK  155  A    between atoms: _383  and  _386
REMARK  156  A    between atoms: _386  and  _387
REMARK  157  A    between atoms: _389  and  _391
REMARK  158  A    between atoms: _391  and  _392
REMARK  159  A    between atoms: _391  and  _394
REMARK  160  A    between atoms: _394  and  _395
REMARK  161  A    between atoms: _400  and  _402
REMARK  162  A    between atoms: _402  and  _403
REMARK  163  A    between atoms: _402  and  _405
REMARK  164  A    between atoms: _405  and  _406
REMARK  165  A    between atoms: _416  and  _418
REMARK  166  A    between atoms: _418  and  _419
REMARK  167  A    between atoms: _418  and  _421
REMARK  168  A    between atoms: _421  and  _422
REMARK  169  A    between atoms: _425  and  _427
REMARK  170  A    between atoms: _427  and  _428
REMARK  171  A    between atoms: _427  and  _430
REMARK  172  A    between atoms: _430  and  _431
REMARK  173  A    between atoms: _436  and  _437
REMARK  174  A    between atoms: _439  and  _441
REMARK  175  A    between atoms: _441  and  _442
REMARK  176  A    between atoms: _444  and  _446
REMARK  177  A    between atoms: _446  and  _447
REMARK  178  A    between atoms: _446  and  _449
REMARK  179  A    between atoms: _449  and  _450
REMARK  180  A    between atoms: _460  and  _462
REMARK  181  A    between atoms: _462  and  _463
REMARK  182  A    between atoms: _462  and  _465
REMARK  183  A    between atoms: _465  and  _466
REMARK  184  A    between atoms: _468  and  _470
REMARK  185  A    between atoms: _470  and  _471
REMARK  186  A    between atoms: _473  and  _475
REMARK  187  A    between atoms: _475  and  _476
REMARK  188  A    between atoms: _475  and  _478
REMARK  189  A    between atoms: _478  and  _479
REMARK  190  A    between atoms: _482  and  _484
REMARK  191  A    between atoms: _484  and  _485
REMARK  192  A    between atoms: _484  and  _487
REMARK  193  A    between atoms: _487  and  _488
REMARK  194  A    between atoms: _493  and  _495
REMARK  195  A    between atoms: _495  and  _496
REMARK  196  A    between atoms: _495  and  _498
REMARK  197  A    between atoms: _498  and  _499
REMARK  198  A    between atoms: _504  and  _506
REMARK  199  A    between atoms: _506  and  _507
REMARK  200  A    between atoms: _506  and  _509
REMARK  201  A    between atoms: _509  and  _510
REMARK  202  A    between atoms: _517  and  _518
REMARK  203  A    between atoms: _523  and  _525
REMARK  204  A    between atoms: _525  and  _526
REMARK  205  A    between atoms: _525  and  _528
REMARK  206  A    between atoms: _528  and  _529
REMARK  207  A    between atoms: _532  and  _534
REMARK  208  A    between atoms: _534  and  _535
REMARK  209  A    between atoms: _534  and  _537
REMARK  210  A    between atoms: _537  and  _538
REMARK  211  A    between atoms: _540  and  _542
REMARK  212  A    between atoms: _542  and  _543
REMARK  213  A    between atoms: _542  and  _545
REMARK  214  A    between atoms: _545  and  _546
REMARK  215  A    between atoms: _551  and  _552
REMARK  216  A    between atoms: _554  and  _556
REMARK  217  A    between atoms: _556  and  _557
REMARK  218  A    between atoms: _556  and  _559
REMARK  219  A    between atoms: _559  and  _560
REMARK  220  A    between atoms: _562  and  _564
REMARK  221  A    between atoms: _564  and  _565
REMARK  222  A    between atoms: _564  and  _567
REMARK  223  A    between atoms: _567  and  _568
REMARK  224  A    between atoms: _571  and  _573
REMARK  225  A    between atoms: _573  and  _574
REMARK  226  A    between atoms: _573  and  _576
REMARK  227  A    between atoms: _576  and  _577
REMARK  228  A    between atoms: _582  and  _584
REMARK  229  A    between atoms: _584  and  _585
REMARK  230  A    between atoms: _584  and  _587
REMARK  231  A    between atoms: _587  and  _588
REMARK  232  A    between atoms: _594  and  _596
REMARK  233  A    between atoms: _596  and  _597
REMARK  234  A    between atoms: _601  and  _602
REMARK  235  A    between atoms: _607  and  _609
REMARK  236  A    between atoms: _609  and  _610
REMARK  237  A    between atoms: _609  and  _612
REMARK  238  A    between atoms: _612  and  _613
REMARK  239  A    between atoms: _618  and  _619
REMARK  240  A    between atoms: _621  and  _623
REMARK  241  A    between atoms: _623  and  _624
REMARK  242  A    between atoms: _623  and  _626
REMARK  243  A    between atoms: _626  and  _627
REMARK  244  A    between atoms: _627  and  _628
REMARK  245  A    between atoms: _628  and  _629
REMARK  246  A    between atoms: _629  and  _630
REMARK  247  A    between atoms: _634  and  _636
REMARK  248  A    between atoms: _636  and  _637
REMARK  249  A    between atoms: _636  and  _639
REMARK  250  A    between atoms: _639  and  _640
REMARK  251  A    between atoms: _640  and  _641
REMARK  252  A    between atoms: _646  and  _648
REMARK  253  A    between atoms: _648  and  _649
REMARK  254  A    between atoms: _648  and  _651
REMARK  255  A    between atoms: _651  and  _652
REMARK  256  A    between atoms: _655  and  _656
REMARK  257  A    between atoms: _661  and  _663
REMARK  258  A    between atoms: _663  and  _664
REMARK  259  A    between atoms: _663  and  _666
REMARK  260  A    between atoms: _666  and  _667
REMARK  261  A    between atoms: _673  and  _675
REMARK  262  A    between atoms: _675  and  _676
REMARK  263  A    between atoms: _678  and  _680
REMARK  264  A    between atoms: _680  and  _681
REMARK  265  A    between atoms: _680  and  _683
REMARK  266  A    between atoms: _683  and  _684
REMARK  267  A    between atoms: _689  and  _690
REMARK  268  A    between atoms: _692  and  _694
REMARK  269  A    between atoms: _694  and  _695
REMARK  270  A    between atoms: _694  and  _697
REMARK  271  A    between atoms: _697  and  _698
REMARK  272  A    between atoms: _701  and  _703
REMARK  273  A    between atoms: _703  and  _704
REMARK  274  A    between atoms: _703  and  _706
REMARK  275  A    between atoms: _706  and  _707
REMARK  276  A    between atoms: _712  and  _713
REMARK                            x       y       z     vdW  Elec       q    Type
REMARK                         _______ _______ _______ _____ _____    ______ ____
ROOT
ATOM      1  O   HOH     1      12.331 -19.052 -17.032  0.00  0.00    +0.000 OA
ENDROOT
TORSDOF 0
REMARK  Name = ../refined-set-2016/3m8u/3m8u_pocket.pdb
REMARK  276 active torsions:
REMARK  status: ('A' for Active; 'I' for Inactive)
REMARK    1  A    between atoms: _1  and  _3
REMARK    2  A    between atoms: _3  and  _4
REMARK    3  A    between atoms: _3  and  _6
REMARK    4  A    between atoms: _6  and  _7
REMARK    5  A    between atoms: _12  and  _14
REMARK    6  A    between atoms: _14  and  _15
REMARK    7  A    between atoms: _14  and  _17
REMARK    8  A    between atoms: _20  and  _22
REMARK    9  A    between atoms: _22  and  _23
REMARK   10  A    between atoms: _22  and  _25
REMARK   11  A    between atoms: _25  and  _26
REMARK   12  A    between atoms: _28  and  _30
REMARK   13  A    between atoms: _30  and  _31
REMARK   14  A    between atoms: _30  and  _33
REMARK   15  A    between atoms: _33  and  _34
REMARK   16  A    between atoms: _34  and  _35
REMARK   17  A    between atoms: _35  and  _36
REMARK   18  A    between atoms: _45  and  _47
REMARK   19  A    between atoms: _47  and  _48
REMARK   20  A    between atoms: _47  and  _50
REMARK   21  A    between atoms: _50  and  _51
REMARK   22  A    between atoms: _54  and  _56
REMARK   23  A    between atoms: _56  and  _57
REMARK   24  A    between atoms: _56  and  _59
REMARK   25  A    between atoms: _62  and  _64
REMARK   26  A    between atoms: _64  and  _65
REMARK   27  A    between atoms: _64  and  _67
REMARK   28  A    between atoms: _67  and  _68
REMARK   29  A    between atoms: _68  and  _69
REMARK   30  A    between atoms: _71  and  _73
REMARK   31  A    between atoms: _73  and  _74
REMARK   32  A    between atoms: _73  and  _76
REMARK   33  A    between atoms: _76  and  _77
REMARK   34  A    between atoms: _80  and  _82
REMARK   35  A    between atoms: _82  and  _83
REMARK   36  A    between atoms: _85  and  _87
REMARK   37  A    between atoms: _87  and  _88
REMARK   38  A    between atoms: _87  and  _90
REMARK   39  A    between atoms: _90  and  _91
REMARK   40  A    between atoms: _94  and  _96
REMARK   41  A    between atoms: _96  and  _97
REMARK   42  A    between atoms: _96  and  _99
REMARK   43  A    between atoms: _99  and  _100
REMARK   44  A    between atoms: _102  and  _104
REMARK   45  A    between atoms: _104  and  _105
REMARK   46  A    between atoms: _104  and  _107
REMARK   47  A    between atoms: _107  and  _108
REMARK   48  A    between atoms: _113  and  _114
REMARK   49  A    between atoms: _116  and  _118
REMARK   50  A    between atoms: _118  and  _119
REMARK   51  A    between atoms: _118  and  _121
REMARK   52  A    between atoms: _121  and  _122
REMARK   53  A    between atoms: _127  and  _129
REMARK   54  A    between atoms: _129  and  _130
REMARK   55  A    between atoms: _133  and  _135
REMARK   56  A    between atoms: _135  and  _136
REMARK   57  A    between atoms: _135  and  _138
REMARK   58  A    between atoms: _138  and  _139
REMARK   59  A    between atoms: _139  and  _140
REMARK   60  A    between atoms: _145  and  _147
REMARK   61  A    between atoms: _147  and  _148
REMARK   62  A    between atoms: _147  and  _150
REMARK   63  A    between atoms: _150  and  _151
REMARK   64  A    between atoms: _156  and  _157
REMARK   65  A    between atoms: _159  and  _161
REMARK   66  A    between atoms: _161  and  _162
REMARK   67  A    between atoms: _161  and  _164
REMARK   68  A    between atoms: _164  and  _165
REMARK   69  A    between atoms: _165  and  _166
REMARK   70  A    between atoms: _168  and  _170
REMARK   71  A    between atoms: _170  and  _171
REMARK   72  A    between atoms: _170  and  _173
REMARK   73  A    between atoms: _173  and  _174
REMARK   74  A    between atoms: _177  and  _179
REMARK   75  A    between atoms: _179  and  _180
REMARK   76  A    between atoms: _179  and  _182
REMARK   77  A    between atoms: _182  and  _183
REMARK   78  A    between atoms: _186  and  _188
REMARK   79  A    between atoms: _188  and  _189
REMARK   80  A    between atoms: _188  and  _191
REMARK   81  A    between atoms: _191  and  _192
REMARK   82  A    between atoms: _195  and  _197
REMARK   83  A    between atoms: _197  and  _198
REMARK   84  A    between atoms: _197  and  _200
REMARK   85  A    between atoms: _200  and  _201
REMARK   86  A    between atoms: _204  and  _206
REMARK   87  A    between atoms: _206  and  _207
REMARK   88  A    between atoms: _206  and  _209
REMARK   89  A    between atoms: _209  and  _210
REMARK   90  A    between atoms: _217  and  _218
REMARK   91  A    between atoms: _223  and  _225
REMARK   92  A    between atoms: _225  and  _226
REMARK   93  A    between atoms: _225  and  _228
REMARK   94  A    between atoms: _228  and  _229
REMARK   95  A    between atoms: _234  and  _236
REMARK   96  A    between atoms: _236  and  _237
REMARK   97  A    between atoms: _236  and  _239
REMARK   98  A    between atoms: _239  and  _240
REMARK   99  A    between atoms: _242  and  _244
REMARK  100  A    between atoms: _244  and  _245
REMARK  101  A    between atoms: _244  and  _247
REMARK  102  A    between atoms: _247  and  _248
REMARK  103  A    between atoms: _248  and  _249
REMARK  104  A    between atoms: _254  and  _256
REMARK  105  A    between atoms: _256  and  _257
REMARK  106  A    between atoms: _256  and  _259
REMARK  107  A    between atoms: _259  and  _260
REMARK  108  A    between atoms: _262  and  _264
REMARK  109  A    between atoms: _264  and  _265
REMARK  110  A    between atoms: _267  and  _269
REMARK  111  A    between atoms: _269  and  _270
REMARK  112  A    between atoms: _269  and  _272
REMARK  113  A    between atoms: _272  and  _273
REMARK  114  A    between atoms: _276  and  _278
REMARK  115  A    between atoms: _278  and  _279
REMARK  116  A    between atoms: _278  and  _281
REMARK  117  A    between atoms: _281  and  _282
REMARK  118  A    between atoms: _287  and  _289
REMARK  119  A    between atoms: _289  and  _290
REMARK  120  A    between atoms: _289  and  _292
REMARK  121  A    between atoms: _292  and  _293
REMARK  122  A    between atoms: _296  and  _298
REMARK  123  A    between atoms: _298  and  _299
REMARK  124  A    between atoms: _302  and  _304
REMARK  125  A    between atoms: _304  and  _305
REMARK  126  A    between atoms: _304  and  _307
REMARK  127  A    between atoms: _307  and  _308
REMARK  128  A    between atoms: _313  and  _314
REMARK  129  A    between atoms: _316  and  _318
REMARK  130  A    between atoms: _318  and  _319
REMARK  131  A    between atoms: _318  and  _321
REMARK  132  A    between atoms: _321  and  _322
REMARK  133  A    between atoms: _327  and  _328
REMARK  134  A    between atoms: _330  and  _332
REMARK  135  A    between atoms: _332  and  _333
REMARK  136  A    between atoms: _332  and  _335
REMARK  137  A    between atoms: _335  and  _336
REMARK  138  A    between atoms: _336  and  _337
REMARK  139  A    between atoms: _342  and  _344
REMARK  140  A    between atoms: _344  and  _345
REMARK  141  A    between atoms: _344  and  _347
REMARK  142  A    between atoms: _350  and  _352
REMARK  143  A    between atoms: _352  and  _353
REMARK  144  A    between atoms: _352  and  _355
REMARK  145  A    between atoms: _358  and  _360
REMARK  146  A    between atoms: _360  and  _361
REMARK  147  A    between atoms: _360  and  _363
REMARK  148  A    between atoms: _363  and  _364
REMARK  149  A    between atoms: _364  and  _365
REMARK  150  A    between atoms: _365  and  _366
REMARK  151  A    between atoms: _375  and  _377
REMARK  152  A    between atoms: _377  and  _378
REMARK  153  A    between atoms: _381  and  _383
REMARK  154  A    between atoms: _383  and  _384
REMARK  155  A    between atoms: _383  and  _386
REMARK  156  A    between atoms: _386  and  _387
REMARK  157  A    between atoms: _389  and  _391
REMARK  158  A    between atoms: _391  and  _392
REMARK  159  A    between atoms: _391  and  _394
REMARK  160  A    between atoms: _394  and  _395
REMARK  161  A    between atoms: _400  and  _402
REMARK  162  A    between atoms: _402  and  _403
REMARK  163  A    between atoms: _402  and  _405
REMARK  164  A    between atoms: _405  and  _406
REMARK  165  A    between atoms: _416  and  _418
REMARK  166  A    between atoms: _418  and  _419
REMARK  167  A    between atoms: _418  and  _421
REMARK  168  A    between atoms: _421  and  _422
REMARK  169  A    between atoms: _425  and  _427
REMARK  170  A    between atoms: _427  and  _428
REMARK  171  A    between atoms: _427  and  _430
REMARK  172  A    between atoms: _430  and  _431
REMARK  173  A    between atoms: _436  and  _437
REMARK  174  A    between atoms: _439  and  _441
REMARK  175  A    between atoms: _441  and  _442
REMARK  176  A    between atoms: _444  and  _446
REMARK  177  A    between atoms: _446  and  _447
REMARK  178  A    between atoms: _446  and  _449
REMARK  179  A    between atoms: _449  and  _450
REMARK  180  A    between atoms: _460  and  _462
REMARK  181  A    between atoms: _462  and  _463
REMARK  182  A    between atoms: _462  and  _465
REMARK  183  A    between atoms: _465  and  _466
REMARK  184  A    between atoms: _468  and  _470
REMARK  185  A    between atoms: _470  and  _471
REMARK  186  A    between atoms: _473  and  _475
REMARK  187  A    between atoms: _475  and  _476
REMARK  188  A    between atoms: _475  and  _478
REMARK  189  A    between atoms: _478  and  _479
REMARK  190  A    between atoms: _482  and  _484
REMARK  191  A    between atoms: _484  and  _485
REMARK  192  A    between atoms: _484  and  _487
REMARK  193  A    between atoms: _487  and  _488
REMARK  194  A    between atoms: _493  and  _495
REMARK  195  A    between atoms: _495  and  _496
REMARK  196  A    between atoms: _495  and  _498
REMARK  197  A    between atoms: _498  and  _499
REMARK  198  A    between atoms: _504  and  _506
REMARK  199  A    between atoms: _506  and  _507
REMARK  200  A    between atoms: _506  and  _509
REMARK  201  A    between atoms: _509  and  _510
REMARK  202  A    between atoms: _517  and  _518
REMARK  203  A    between atoms: _523  and  _525
REMARK  204  A    between atoms: _525  and  _526
REMARK  205  A    between atoms: _525  and  _528
REMARK  206  A    between atoms: _528  and  _529
REMARK  207  A    between atoms: _532  and  _534
REMARK  208  A    between atoms: _534  and  _535
REMARK  209  A    between atoms: _534  and  _537
REMARK  210  A    between atoms: _537  and  _538
REMARK  211  A    between atoms: _540  and  _542
REMARK  212  A    between atoms: _542  and  _543
REMARK  213  A    between atoms: _542  and  _545
REMARK  214  A    between atoms: _545  and  _546
REMARK  215  A    between atoms: _551  and  _552
REMARK  216  A    between atoms: _554  and  _556
REMARK  217  A    between atoms: _556  and  _557
REMARK  218  A    between atoms: _556  and  _559
REMARK  219  A    between atoms: _559  and  _560
REMARK  220  A    between atoms: _562  and  _564
REMARK  221  A    between atoms: _564  and  _565
REMARK  222  A    between atoms: _564  and  _567
REMARK  223  A    between atoms: _567  and  _568
REMARK  224  A    between atoms: _571  and  _573
REMARK  225  A    between atoms: _573  and  _574
REMARK  226  A    between atoms: _573  and  _576
REMARK  227  A    between atoms: _576  and  _577
REMARK  228  A    between atoms: _582  and  _584
REMARK  229  A    between atoms: _584  and  _585
REMARK  230  A    between atoms: _584  and  _587
REMARK  231  A    between atoms: _587  and  _588
REMARK  232  A    between atoms: _594  and  _596
REMARK  233  A    between atoms: _596  and  _597
REMARK  234  A    between atoms: _601  and  _602
REMARK  235  A    between atoms: _607  and  _609
REMARK  236  A    between atoms: _609  and  _610
REMARK  237  A    between atoms: _609  and  _612
REMARK  238  A    between atoms: _612  and  _613
REMARK  239  A    between atoms: _618  and  _619
REMARK  240  A    between atoms: _621  and  _623
REMARK  241  A    between atoms: _623  and  _624
REMARK  242  A    between atoms: _623  and  _626
REMARK  243  A    between atoms: _626  and  _627
REMARK  244  A    between atoms: _627  and  _628
REMARK  245  A    between atoms: _628  and  _629
REMARK  246  A    between atoms: _629  and  _630
REMARK  247  A    between atoms: _634  and  _636
REMARK  248  A    between atoms: _636  and  _637
REMARK  249  A    between atoms: _636  and  _639
REMARK  250  A    between atoms: _639  and  _640
REMARK  251  A    between atoms: _640  and  _641
REMARK  252  A    between atoms: _646  and  _648
REMARK  253  A    between atoms: _648  and  _649
REMARK  254  A    between atoms: _648  and  _651
REMARK  255  A    between atoms: _651  and  _652
REMARK  256  A    between atoms: _655  and  _656
REMARK  257  A    between atoms: _661  and  _663
REMARK  258  A    between atoms: _663  and  _664
REMARK  259  A    between atoms: _663  and  _666
REMARK  260  A    between atoms: _666  and  _667
REMARK  261  A    between atoms: _673  and  _675
REMARK  262  A    between atoms: _675  and  _676
REMARK  263  A    between atoms: _678  and  _680
REMARK  264  A    between atoms: _680  and  _681
REMARK  265  A    between atoms: _680  and  _683
REMARK  266  A    between atoms: _683  and  _684
REMARK  267  A    between atoms: _689  and  _690
REMARK  268  A    between atoms: _692  and  _694
REMARK  269  A    between atoms: _694  and  _695
REMARK  270  A    between atoms: _694  and  _697
REMARK  271  A    between atoms: _697  and  _698
REMARK  272  A    between atoms: _701  and  _703
REMARK  273  A    between atoms: _703  and  _704
REMARK  274  A    between atoms: _703  and  _706
REMARK  275  A    between atoms: _706  and  _707
REMARK  276  A    between atoms: _712  and  _713
REMARK                            x       y       z     vdW  Elec       q    Type
REMARK                         _______ _______ _______ _____ _____    ______ ____
ROOT
ATOM      1  O   HOH     1      16.020 -22.164  -6.304  0.00  0.00    +0.000 OA
ENDROOT
TORSDOF 0
REMARK  Name = ../refined-set-2016/3m8u/3m8u_pocket.pdb
REMARK  276 active torsions:
REMARK  status: ('A' for Active; 'I' for Inactive)
REMARK    1  A    between atoms: _1  and  _3
REMARK    2  A    between atoms: _3  and  _4
REMARK    3  A    between atoms: _3  and  _6
REMARK    4  A    between atoms: _6  and  _7
REMARK    5  A    between atoms: _12  and  _14
REMARK    6  A    between atoms: _14  and  _15
REMARK    7  A    between atoms: _14  and  _17
REMARK    8  A    between atoms: _20  and  _22
REMARK    9  A    between atoms: _22  and  _23
REMARK   10  A    between atoms: _22  and  _25
REMARK   11  A    between atoms: _25  and  _26
REMARK   12  A    between atoms: _28  and  _30
REMARK   13  A    between atoms: _30  and  _31
REMARK   14  A    between atoms: _30  and  _33
REMARK   15  A    between atoms: _33  and  _34
REMARK   16  A    between atoms: _34  and  _35
REMARK   17  A    between atoms: _35  and  _36
REMARK   18  A    between atoms: _45  and  _47
REMARK   19  A    between atoms: _47  and  _48
REMARK   20  A    between atoms: _47  and  _50
REMARK   21  A    between atoms: _50  and  _51
REMARK   22  A    between atoms: _54  and  _56
REMARK   23  A    between atoms: _56  and  _57
REMARK   24  A    between atoms: _56  and  _59
REMARK   25  A    between atoms: _62  and  _64
REMARK   26  A    between atoms: _64  and  _65
REMARK   27  A    between atoms: _64  and  _67
REMARK   28  A    between atoms: _67  and  _68
REMARK   29  A    between atoms: _68  and  _69
REMARK   30  A    between atoms: _71  and  _73
REMARK   31  A    between atoms: _73  and  _74
REMARK   32  A    between atoms: _73  and  _76
REMARK   33  A    between atoms: _76  and  _77
REMARK   34  A    between atoms: _80  and  _82
REMARK   35  A    between atoms: _82  and  _83
REMARK   36  A    between atoms: _85  and  _87
REMARK   37  A    between atoms: _87  and  _88
REMARK   38  A    between atoms: _87  and  _90
REMARK   39  A    between atoms: _90  and  _91
REMARK   40  A    between atoms: _94  and  _96
REMARK   41  A    between atoms: _96  and  _97
REMARK   42  A    between atoms: _96  and  _99
REMARK   43  A    between atoms: _99  and  _100
REMARK   44  A    between atoms: _102  and  _104
REMARK   45  A    between atoms: _104  and  _105
REMARK   46  A    between atoms: _104  and  _107
REMARK   47  A    between atoms: _107  and  _108
REMARK   48  A    between atoms: _113  and  _114
REMARK   49  A    between atoms: _116  and  _118
REMARK   50  A    between atoms: _118  and  _119
REMARK   51  A    between atoms: _118  and  _121
REMARK   52  A    between atoms: _121  and  _122
REMARK   53  A    between atoms: _127  and  _129
REMARK   54  A    between atoms: _129  and  _130
REMARK   55  A    between atoms: _133  and  _135
REMARK   56  A    between atoms: _135  and  _136
REMARK   57  A    between atoms: _135  and  _138
REMARK   58  A    between atoms: _138  and  _139
REMARK   59  A    between atoms: _139  and  _140
REMARK   60  A    between atoms: _145  and  _147
REMARK   61  A    between atoms: _147  and  _148
REMARK   62  A    between atoms: _147  and  _150
REMARK   63  A    between atoms: _150  and  _151
REMARK   64  A    between atoms: _156  and  _157
REMARK   65  A    between atoms: _159  and  _161
REMARK   66  A    between atoms: _161  and  _162
REMARK   67  A    between atoms: _161  and  _164
REMARK   68  A    between atoms: _164  and  _165
REMARK   69  A    between atoms: _165  and  _166
REMARK   70  A    between atoms: _168  and  _170
REMARK   71  A    between atoms: _170  and  _171
REMARK   72  A    between atoms: _170  and  _173
REMARK   73  A    between atoms: _173  and  _174
REMARK   74  A    between atoms: _177  and  _179
REMARK   75  A    between atoms: _179  and  _180
REMARK   76  A    between atoms: _179  and  _182
REMARK   77  A    between atoms: _182  and  _183
REMARK   78  A    between atoms: _186  and  _188
REMARK   79  A    between atoms: _188  and  _189
REMARK   80  A    between atoms: _188  and  _191
REMARK   81  A    between atoms: _191  and  _192
REMARK   82  A    between atoms: _195  and  _197
REMARK   83  A    between atoms: _197  and  _198
REMARK   84  A    between atoms: _197  and  _200
REMARK   85  A    between atoms: _200  and  _201
REMARK   86  A    between atoms: _204  and  _206
REMARK   87  A    between atoms: _206  and  _207
REMARK   88  A    between atoms: _206  and  _209
REMARK   89  A    between atoms: _209  and  _210
REMARK   90  A    between atoms: _217  and  _218
REMARK   91  A    between atoms: _223  and  _225
REMARK   92  A    between atoms: _225  and  _226
REMARK   93  A    between atoms: _225  and  _228
REMARK   94  A    between atoms: _228  and  _229
REMARK   95  A    between atoms: _234  and  _236
REMARK   96  A    between atoms: _236  and  _237
REMARK   97  A    between atoms: _236  and  _239
REMARK   98  A    between atoms: _239  and  _240
REMARK   99  A    between atoms: _242  and  _244
REMARK  100  A    between atoms: _244  and  _245
REMARK  101  A    between atoms: _244  and  _247
REMARK  102  A    between atoms: _247  and  _248
REMARK  103  A    between atoms: _248  and  _249
REMARK  104  A    between atoms: _254  and  _256
REMARK  105  A    between atoms: _256  and  _257
REMARK  106  A    between atoms: _256  and  _259
REMARK  107  A    between atoms: _259  and  _260
REMARK  108  A    between atoms: _262  and  _264
REMARK  109  A    between atoms: _264  and  _265
REMARK  110  A    between atoms: _267  and  _269
REMARK  111  A    between atoms: _269  and  _270
REMARK  112  A    between atoms: _269  and  _272
REMARK  113  A    between atoms: _272  and  _273
REMARK  114  A    between atoms: _276  and  _278
REMARK  115  A    between atoms: _278  and  _279
REMARK  116  A    between atoms: _278  and  _281
REMARK  117  A    between atoms: _281  and  _282
REMARK  118  A    between atoms: _287  and  _289
REMARK  119  A    between atoms: _289  and  _290
REMARK  120  A    between atoms: _289  and  _292
REMARK  121  A    between atoms: _292  and  _293
REMARK  122  A    between atoms: _296  and  _298
REMARK  123  A    between atoms: _298  and  _299
REMARK  124  A    between atoms: _302  and  _304
REMARK  125  A    between atoms: _304  and  _305
REMARK  126  A    between atoms: _304  and  _307
REMARK  127  A    between atoms: _307  and  _308
REMARK  128  A    between atoms: _313  and  _314
REMARK  129  A    between atoms: _316  and  _318
REMARK  130  A    between atoms: _318  and  _319
REMARK  131  A    between atoms: _318  and  _321
REMARK  132  A    between atoms: _321  and  _322
REMARK  133  A    between atoms: _327  and  _328
REMARK  134  A    between atoms: _330  and  _332
REMARK  135  A    between atoms: _332  and  _333
REMARK  136  A    between atoms: _332  and  _335
REMARK  137  A    between atoms: _335  and  _336
REMARK  138  A    between atoms: _336  and  _337
REMARK  139  A    between atoms: _342  and  _344
REMARK  140  A    between atoms: _344  and  _345
REMARK  141  A    between atoms: _344  and  _347
REMARK  142  A    between atoms: _350  and  _352
REMARK  143  A    between atoms: _352  and  _353
REMARK  144  A    between atoms: _352  and  _355
REMARK  145  A    between atoms: _358  and  _360
REMARK  146  A    between atoms: _360  and  _361
REMARK  147  A    between atoms: _360  and  _363
REMARK  148  A    between atoms: _363  and  _364
REMARK  149  A    between atoms: _364  and  _365
REMARK  150  A    between atoms: _365  and  _366
REMARK  151  A    between atoms: _375  and  _377
REMARK  152  A    between atoms: _377  and  _378
REMARK  153  A    between atoms: _381  and  _383
REMARK  154  A    between atoms: _383  and  _384
REMARK  155  A    between atoms: _383  and  _386
REMARK  156  A    between atoms: _386  and  _387
REMARK  157  A    between atoms: _389  and  _391
REMARK  158  A    between atoms: _391  and  _392
REMARK  159  A    between atoms: _391  and  _394
REMARK  160  A    between atoms: _394  and  _395
REMARK  161  A    between atoms: _400  and  _402
REMARK  162  A    between atoms: _402  and  _403
REMARK  163  A    between atoms: _402  and  _405
REMARK  164  A    between atoms: _405  and  _406
REMARK  165  A    between atoms: _416  and  _418
REMARK  166  A    between atoms: _418  and  _419
REMARK  167  A    between atoms: _418  and  _421
REMARK  168  A    between atoms: _421  and  _422
REMARK  169  A    between atoms: _425  and  _427
REMARK  170  A    between atoms: _427  and  _428
REMARK  171  A    between atoms: _427  and  _430
REMARK  172  A    between atoms: _430  and  _431
REMARK  173  A    between atoms: _436  and  _437
REMARK  174  A    between atoms: _439  and  _441
REMARK  175  A    between atoms: _441  and  _442
REMARK  176  A    between atoms: _444  and  _446
REMARK  177  A    between atoms: _446  and  _447
REMARK  178  A    between atoms: _446  and  _449
REMARK  179  A    between atoms: _449  and  _450
REMARK  180  A    between atoms: _460  and  _462
REMARK  181  A    between atoms: _462  and  _463
REMARK  182  A    between atoms: _462  and  _465
REMARK  183  A    between atoms: _465  and  _466
REMARK  184  A    between atoms: _468  and  _470
REMARK  185  A    between atoms: _470  and  _471
REMARK  186  A    between atoms: _473  and  _475
REMARK  187  A    between atoms: _475  and  _476
REMARK  188  A    between atoms: _475  and  _478
REMARK  189  A    between atoms: _478  and  _479
REMARK  190  A    between atoms: _482  and  _484
REMARK  191  A    between atoms: _484  and  _485
REMARK  192  A    between atoms: _484  and  _487
REMARK  193  A    between atoms: _487  and  _488
REMARK  194  A    between atoms: _493  and  _495
REMARK  195  A    between atoms: _495  and  _496
REMARK  196  A    between atoms: _495  and  _498
REMARK  197  A    between atoms: _498  and  _499
REMARK  198  A    between atoms: _504  and  _506
REMARK  199  A    between atoms: _506  and  _507
REMARK  200  A    between atoms: _506  and  _509
REMARK  201  A    between atoms: _509  and  _510
REMARK  202  A    between atoms: _517  and  _518
REMARK  203  A    between atoms: _523  and  _525
REMARK  204  A    between atoms: _525  and  _526
REMARK  205  A    between atoms: _525  and  _528
REMARK  206  A    between atoms: _528  and  _529
REMARK  207  A    between atoms: _532  and  _534
REMARK  208  A    between atoms: _534  and  _535
REMARK  209  A    between atoms: _534  and  _537
REMARK  210  A    between atoms: _537  and  _538
REMARK  211  A    between atoms: _540  and  _542
REMARK  212  A    between atoms: _542  and  _543
REMARK  213  A    between atoms: _542  and  _545
REMARK  214  A    between atoms: _545  and  _546
REMARK  215  A    between atoms: _551  and  _552
REMARK  216  A    between atoms: _554  and  _556
REMARK  217  A    between atoms: _556  and  _557
REMARK  218  A    between atoms: _556  and  _559
REMARK  219  A    between atoms: _559  and  _560
REMARK  220  A    between atoms: _562  and  _564
REMARK  221  A    between atoms: _564  and  _565
REMARK  222  A    between atoms: _564  and  _567
REMARK  223  A    between atoms: _567  and  _568
REMARK  224  A    between atoms: _571  and  _573
REMARK  225  A    between atoms: _573  and  _574
REMARK  226  A    between atoms: _573  and  _576
REMARK  227  A    between atoms: _576  and  _577
REMARK  228  A    between atoms: _582  and  _584
REMARK  229  A    between atoms: _584  and  _585
REMARK  230  A    between atoms: _584  and  _587
REMARK  231  A    between atoms: _587  and  _588
REMARK  232  A    between atoms: _594  and  _596
REMARK  233  A    between atoms: _596  and  _597
REMARK  234  A    between atoms: _601  and  _602
REMARK  235  A    between atoms: _607  and  _609
REMARK  236  A    between atoms: _609  and  _610
REMARK  237  A    between atoms: _609  and  _612
REMARK  238  A    between atoms: _612  and  _613
REMARK  239  A    between atoms: _618  and  _619
REMARK  240  A    between atoms: _621  and  _623
REMARK  241  A    between atoms: _623  and  _624
REMARK  242  A    between atoms: _623  and  _626
REMARK  243  A    between atoms: _626  and  _627
REMARK  244  A    between atoms: _627  and  _628
REMARK  245  A    between atoms: _628  and  _629
REMARK  246  A    between atoms: _629  and  _630
REMARK  247  A    between atoms: _634  and  _636
REMARK  248  A    between atoms: _636  and  _637
REMARK  249  A    between atoms: _636  and  _639
REMARK  250  A    between atoms: _639  and  _640
REMARK  251  A    between atoms: _640  and  _641
REMARK  252  A    between atoms: _646  and  _648
REMARK  253  A    between atoms: _648  and  _649
REMARK  254  A    between atoms: _648  and  _651
REMARK  255  A    between atoms: _651  and  _652
REMARK  256  A    between atoms: _655  and  _656
REMARK  257  A    between atoms: _661  and  _663
REMARK  258  A    between atoms: _663  and  _664
REMARK  259  A    between atoms: _663  and  _666
REMARK  260  A    between atoms: _666  and  _667
REMARK  261  A    between atoms: _673  and  _675
REMARK  262  A    between atoms: _675  and  _676
REMARK  263  A    between atoms: _678  and  _680
REMARK  264  A    between atoms: _680  and  _681
REMARK  265  A    between atoms: _680  and  _683
REMARK  266  A    between atoms: _683  and  _684
REMARK  267  A    between atoms: _689  and  _690
REMARK  268  A    between atoms: _692  and  _694
REMARK  269  A    between atoms: _694  and  _695
REMARK  270  A    between atoms: _694  and  _697
REMARK  271  A    between atoms: _697  and  _698
REMARK  272  A    between atoms: _701  and  _703
REMARK  273  A    between atoms: _703  and  _704
REMARK  274  A    between atoms: _703  and  _706
REMARK  275  A    between atoms: _706  and  _707
REMARK  276  A    between atoms: _712  and  _713
REMARK                            x       y       z     vdW  Elec       q    Type
REMARK                         _______ _______ _______ _____ _____    ______ ____
ROOT
ATOM      1  O   HOH     1       9.205 -10.584 -15.653  0.00  0.00    +0.000 OA
ENDROOT
TORSDOF 0
REMARK  Name = ../refined-set-2016/3m8u/3m8u_pocket.pdb
REMARK  276 active torsions:
REMARK  status: ('A' for Active; 'I' for Inactive)
REMARK    1  A    between atoms: _1  and  _3
REMARK    2  A    between atoms: _3  and  _4
REMARK    3  A    between atoms: _3  and  _6
REMARK    4  A    between atoms: _6  and  _7
REMARK    5  A    between atoms: _12  and  _14
REMARK    6  A    between atoms: _14  and  _15
REMARK    7  A    between atoms: _14  and  _17
REMARK    8  A    between atoms: _20  and  _22
REMARK    9  A    between atoms: _22  and  _23
REMARK   10  A    between atoms: _22  and  _25
REMARK   11  A    between atoms: _25  and  _26
REMARK   12  A    between atoms: _28  and  _30
REMARK   13  A    between atoms: _30  and  _31
REMARK   14  A    between atoms: _30  and  _33
REMARK   15  A    between atoms: _33  and  _34
REMARK   16  A    between atoms: _34  and  _35
REMARK   17  A    between atoms: _35  and  _36
REMARK   18  A    between atoms: _45  and  _47
REMARK   19  A    between atoms: _47  and  _48
REMARK   20  A    between atoms: _47  and  _50
REMARK   21  A    between atoms: _50  and  _51
REMARK   22  A    between atoms: _54  and  _56
REMARK   23  A    between atoms: _56  and  _57
REMARK   24  A    between atoms: _56  and  _59
REMARK   25  A    between atoms: _62  and  _64
REMARK   26  A    between atoms: _64  and  _65
REMARK   27  A    between atoms: _64  and  _67
REMARK   28  A    between atoms: _67  and  _68
REMARK   29  A    between atoms: _68  and  _69
REMARK   30  A    between atoms: _71  and  _73
REMARK   31  A    between atoms: _73  and  _74
REMARK   32  A    between atoms: _73  and  _76
REMARK   33  A    between atoms: _76  and  _77
REMARK   34  A    between atoms: _80  and  _82
REMARK   35  A    between atoms: _82  and  _83
REMARK   36  A    between atoms: _85  and  _87
REMARK   37  A    between atoms: _87  and  _88
REMARK   38  A    between atoms: _87  and  _90
REMARK   39  A    between atoms: _90  and  _91
REMARK   40  A    between atoms: _94  and  _96
REMARK   41  A    between atoms: _96  and  _97
REMARK   42  A    between atoms: _96  and  _99
REMARK   43  A    between atoms: _99  and  _100
REMARK   44  A    between atoms: _102  and  _104
REMARK   45  A    between atoms: _104  and  _105
REMARK   46  A    between atoms: _104  and  _107
REMARK   47  A    between atoms: _107  and  _108
REMARK   48  A    between atoms: _113  and  _114
REMARK   49  A    between atoms: _116  and  _118
REMARK   50  A    between atoms: _118  and  _119
REMARK   51  A    between atoms: _118  and  _121
REMARK   52  A    between atoms: _121  and  _122
REMARK   53  A    between atoms: _127  and  _129
REMARK   54  A    between atoms: _129  and  _130
REMARK   55  A    between atoms: _133  and  _135
REMARK   56  A    between atoms: _135  and  _136
REMARK   57  A    between atoms: _135  and  _138
REMARK   58  A    between atoms: _138  and  _139
REMARK   59  A    between atoms: _139  and  _140
REMARK   60  A    between atoms: _145  and  _147
REMARK   61  A    between atoms: _147  and  _148
REMARK   62  A    between atoms: _147  and  _150
REMARK   63  A    between atoms: _150  and  _151
REMARK   64  A    between atoms: _156  and  _157
REMARK   65  A    between atoms: _159  and  _161
REMARK   66  A    between atoms: _161  and  _162
REMARK   67  A    between atoms: _161  and  _164
REMARK   68  A    between atoms: _164  and  _165
REMARK   69  A    between atoms: _165  and  _166
REMARK   70  A    between atoms: _168  and  _170
REMARK   71  A    between atoms: _170  and  _171
REMARK   72  A    between atoms: _170  and  _173
REMARK   73  A    between atoms: _173  and  _174
REMARK   74  A    between atoms: _177  and  _179
REMARK   75  A    between atoms: _179  and  _180
REMARK   76  A    between atoms: _179  and  _182
REMARK   77  A    between atoms: _182  and  _183
REMARK   78  A    between atoms: _186  and  _188
REMARK   79  A    between atoms: _188  and  _189
REMARK   80  A    between atoms: _188  and  _191
REMARK   81  A    between atoms: _191  and  _192
REMARK   82  A    between atoms: _195  and  _197
REMARK   83  A    between atoms: _197  and  _198
REMARK   84  A    between atoms: _197  and  _200
REMARK   85  A    between atoms: _200  and  _201
REMARK   86  A    between atoms: _204  and  _206
REMARK   87  A    between atoms: _206  and  _207
REMARK   88  A    between atoms: _206  and  _209
REMARK   89  A    between atoms: _209  and  _210
REMARK   90  A    between atoms: _217  and  _218
REMARK   91  A    between atoms: _223  and  _225
REMARK   92  A    between atoms: _225  and  _226
REMARK   93  A    between atoms: _225  and  _228
REMARK   94  A    between atoms: _228  and  _229
REMARK   95  A    between atoms: _234  and  _236
REMARK   96  A    between atoms: _236  and  _237
REMARK   97  A    between atoms: _236  and  _239
REMARK   98  A    between atoms: _239  and  _240
REMARK   99  A    between atoms: _242  and  _244
REMARK  100  A    between atoms: _244  and  _245
REMARK  101  A    between atoms: _244  and  _247
REMARK  102  A    between atoms: _247  and  _248
REMARK  103  A    between atoms: _248  and  _249
REMARK  104  A    between atoms: _254  and  _256
REMARK  105  A    between atoms: _256  and  _257
REMARK  106  A    between atoms: _256  and  _259
REMARK  107  A    between atoms: _259  and  _260
REMARK  108  A    between atoms: _262  and  _264
REMARK  109  A    between atoms: _264  and  _265
REMARK  110  A    between atoms: _267  and  _269
REMARK  111  A    between atoms: _269  and  _270
REMARK  112  A    between atoms: _269  and  _272
REMARK  113  A    between atoms: _272  and  _273
REMARK  114  A    between atoms: _276  and  _278
REMARK  115  A    between atoms: _278  and  _279
REMARK  116  A    between atoms: _278  and  _281
REMARK  117  A    between atoms: _281  and  _282
REMARK  118  A    between atoms: _287  and  _289
REMARK  119  A    between atoms: _289  and  _290
REMARK  120  A    between atoms: _289  and  _292
REMARK  121  A    between atoms: _292  and  _293
REMARK  122  A    between atoms: _296  and  _298
REMARK  123  A    between atoms: _298  and  _299
REMARK  124  A    between atoms: _302  and  _304
REMARK  125  A    between atoms: _304  and  _305
REMARK  126  A    between atoms: _304  and  _307
REMARK  127  A    between atoms: _307  and  _308
REMARK  128  A    between atoms: _313  and  _314
REMARK  129  A    between atoms: _316  and  _318
REMARK  130  A    between atoms: _318  and  _319
REMARK  131  A    between atoms: _318  and  _321
REMARK  132  A    between atoms: _321  and  _322
REMARK  133  A    between atoms: _327  and  _328
REMARK  134  A    between atoms: _330  and  _332
REMARK  135  A    between atoms: _332  and  _333
REMARK  136  A    between atoms: _332  and  _335
REMARK  137  A    between atoms: _335  and  _336
REMARK  138  A    between atoms: _336  and  _337
REMARK  139  A    between atoms: _342  and  _344
REMARK  140  A    between atoms: _344  and  _345
REMARK  141  A    between atoms: _344  and  _347
REMARK  142  A    between atoms: _350  and  _352
REMARK  143  A    between atoms: _352  and  _353
REMARK  144  A    between atoms: _352  and  _355
REMARK  145  A    between atoms: _358  and  _360
REMARK  146  A    between atoms: _360  and  _361
REMARK  147  A    between atoms: _360  and  _363
REMARK  148  A    between atoms: _363  and  _364
REMARK  149  A    between atoms: _364  and  _365
REMARK  150  A    between atoms: _365  and  _366
REMARK  151  A    between atoms: _375  and  _377
REMARK  152  A    between atoms: _377  and  _378
REMARK  153  A    between atoms: _381  and  _383
REMARK  154  A    between atoms: _383  and  _384
REMARK  155  A    between atoms: _383  and  _386
REMARK  156  A    between atoms: _386  and  _387
REMARK  157  A    between atoms: _389  and  _391
REMARK  158  A    between atoms: _391  and  _392
REMARK  159  A    between atoms: _391  and  _394
REMARK  160  A    between atoms: _394  and  _395
REMARK  161  A    between atoms: _400  and  _402
REMARK  162  A    between atoms: _402  and  _403
REMARK  163  A    between atoms: _402  and  _405
REMARK  164  A    between atoms: _405  and  _406
REMARK  165  A    between atoms: _416  and  _418
REMARK  166  A    between atoms: _418  and  _419
REMARK  167  A    between atoms: _418  and  _421
REMARK  168  A    between atoms: _421  and  _422
REMARK  169  A    between atoms: _425  and  _427
REMARK  170  A    between atoms: _427  and  _428
REMARK  171  A    between atoms: _427  and  _430
REMARK  172  A    between atoms: _430  and  _431
REMARK  173  A    between atoms: _436  and  _437
REMARK  174  A    between atoms: _439  and  _441
REMARK  175  A    between atoms: _441  and  _442
REMARK  176  A    between atoms: _444  and  _446
REMARK  177  A    between atoms: _446  and  _447
REMARK  178  A    between atoms: _446  and  _449
REMARK  179  A    between atoms: _449  and  _450
REMARK  180  A    between atoms: _460  and  _462
REMARK  181  A    between atoms: _462  and  _463
REMARK  182  A    between atoms: _462  and  _465
REMARK  183  A    between atoms: _465  and  _466
REMARK  184  A    between atoms: _468  and  _470
REMARK  185  A    between atoms: _470  and  _471
REMARK  186  A    between atoms: _473  and  _475
REMARK  187  A    between atoms: _475  and  _476
REMARK  188  A    between atoms: _475  and  _478
REMARK  189  A    between atoms: _478  and  _479
REMARK  190  A    between atoms: _482  and  _484
REMARK  191  A    between atoms: _484  and  _485
REMARK  192  A    between atoms: _484  and  _487
REMARK  193  A    between atoms: _487  and  _488
REMARK  194  A    between atoms: _493  and  _495
REMARK  195  A    between atoms: _495  and  _496
REMARK  196  A    between atoms: _495  and  _498
REMARK  197  A    between atoms: _498  and  _499
REMARK  198  A    between atoms: _504  and  _506
REMARK  199  A    between atoms: _506  and  _507
REMARK  200  A    between atoms: _506  and  _509
REMARK  201  A    between atoms: _509  and  _510
REMARK  202  A    between atoms: _517  and  _518
REMARK  203  A    between atoms: _523  and  _525
REMARK  204  A    between atoms: _525  and  _526
REMARK  205  A    between atoms: _525  and  _528
REMARK  206  A    between atoms: _528  and  _529
REMARK  207  A    between atoms: _532  and  _534
REMARK  208  A    between atoms: _534  and  _535
REMARK  209  A    between atoms: _534  and  _537
REMARK  210  A    between atoms: _537  and  _538
REMARK  211  A    between atoms: _540  and  _542
REMARK  212  A    between atoms: _542  and  _543
REMARK  213  A    between atoms: _542  and  _545
REMARK  214  A    between atoms: _545  and  _546
REMARK  215  A    between atoms: _551  and  _552
REMARK  216  A    between atoms: _554  and  _556
REMARK  217  A    between atoms: _556  and  _557
REMARK  218  A    between atoms: _556  and  _559
REMARK  219  A    between atoms: _559  and  _560
REMARK  220  A    between atoms: _562  and  _564
REMARK  221  A    between atoms: _564  and  _565
REMARK  222  A    between atoms: _564  and  _567
REMARK  223  A    between atoms: _567  and  _568
REMARK  224  A    between atoms: _571  and  _573
REMARK  225  A    between atoms: _573  and  _574
REMARK  226  A    between atoms: _573  and  _576
REMARK  227  A    between atoms: _576  and  _577
REMARK  228  A    between atoms: _582  and  _584
REMARK  229  A    between atoms: _584  and  _585
REMARK  230  A    between atoms: _584  and  _587
REMARK  231  A    between atoms: _587  and  _588
REMARK  232  A    between atoms: _594  and  _596
REMARK  233  A    between atoms: _596  and  _597
REMARK  234  A    between atoms: _601  and  _602
REMARK  235  A    between atoms: _607  and  _609
REMARK  236  A    between atoms: _609  and  _610
REMARK  237  A    between atoms: _609  and  _612
REMARK  238  A    between atoms: _612  and  _613
REMARK  239  A    between atoms: _618  and  _619
REMARK  240  A    between atoms: _621  and  _623
REMARK  241  A    between atoms: _623  and  _624
REMARK  242  A    between atoms: _623  and  _626
REMARK  243  A    between atoms: _626  and  _627
REMARK  244  A    between atoms: _627  and  _628
REMARK  245  A    between atoms: _628  and  _629
REMARK  246  A    between atoms: _629  and  _630
REMARK  247  A    between atoms: _634  and  _636
REMARK  248  A    between atoms: _636  and  _637
REMARK  249  A    between atoms: _636  and  _639
REMARK  250  A    between atoms: _639  and  _640
REMARK  251  A    between atoms: _640  and  _641
REMARK  252  A    between atoms: _646  and  _648
REMARK  253  A    between atoms: _648  and  _649
REMARK  254  A    between atoms: _648  and  _651
REMARK  255  A    between atoms: _651  and  _652
REMARK  256  A    between atoms: _655  and  _656
REMARK  257  A    between atoms: _661  and  _663
REMARK  258  A    between atoms: _663  and  _664
REMARK  259  A    between atoms: _663  and  _666
REMARK  260  A    between atoms: _666  and  _667
REMARK  261  A    between atoms: _673  and  _675
REMARK  262  A    between atoms: _675  and  _676
REMARK  263  A    between atoms: _678  and  _680
REMARK  264  A    between atoms: _680  and  _681
REMARK  265  A    between atoms: _680  and  _683
REMARK  266  A    between atoms: _683  and  _684
REMARK  267  A    between atoms: _689  and  _690
REMARK  268  A    between atoms: _692  and  _694
REMARK  269  A    between atoms: _694  and  _695
REMARK  270  A    between atoms: _694  and  _697
REMARK  271  A    between atoms: _697  and  _698
REMARK  272  A    between atoms: _701  and  _703
REMARK  273  A    between atoms: _703  and  _704
REMARK  274  A    between atoms: _703  and  _706
REMARK  275  A    between atoms: _706  and  _707
REMARK  276  A    between atoms: _712  and  _713
REMARK                            x       y       z     vdW  Elec       q    Type
REMARK                         _______ _______ _______ _____ _____    ______ ____
ROOT
ATOM      1  O   HOH     1       6.857 -24.303 -19.249  0.00  0.00    +0.000 OA
ENDROOT
TORSDOF 0
REMARK  Name = ../refined-set-2016/3m8u/3m8u_pocket.pdb
REMARK  276 active torsions:
REMARK  status: ('A' for Active; 'I' for Inactive)
REMARK    1  A    between atoms: _1  and  _3
REMARK    2  A    between atoms: _3  and  _4
REMARK    3  A    between atoms: _3  and  _6
REMARK    4  A    between atoms: _6  and  _7
REMARK    5  A    between atoms: _12  and  _14
REMARK    6  A    between atoms: _14  and  _15
REMARK    7  A    between atoms: _14  and  _17
REMARK    8  A    between atoms: _20  and  _22
REMARK    9  A    between atoms: _22  and  _23
REMARK   10  A    between atoms: _22  and  _25
REMARK   11  A    between atoms: _25  and  _26
REMARK   12  A    between atoms: _28  and  _30
REMARK   13  A    between atoms: _30  and  _31
REMARK   14  A    between atoms: _30  and  _33
REMARK   15  A    between atoms: _33  and  _34
REMARK   16  A    between atoms: _34  and  _35
REMARK   17  A    between atoms: _35  and  _36
REMARK   18  A    between atoms: _45  and  _47
REMARK   19  A    between atoms: _47  and  _48
REMARK   20  A    between atoms: _47  and  _50
REMARK   21  A    between atoms: _50  and  _51
REMARK   22  A    between atoms: _54  and  _56
REMARK   23  A    between atoms: _56  and  _57
REMARK   24  A    between atoms: _56  and  _59
REMARK   25  A    between atoms: _62  and  _64
REMARK   26  A    between atoms: _64  and  _65
REMARK   27  A    between atoms: _64  and  _67
REMARK   28  A    between atoms: _67  and  _68
REMARK   29  A    between atoms: _68  and  _69
REMARK   30  A    between atoms: _71  and  _73
REMARK   31  A    between atoms: _73  and  _74
REMARK   32  A    between atoms: _73  and  _76
REMARK   33  A    between atoms: _76  and  _77
REMARK   34  A    between atoms: _80  and  _82
REMARK   35  A    between atoms: _82  and  _83
REMARK   36  A    between atoms: _85  and  _87
REMARK   37  A    between atoms: _87  and  _88
REMARK   38  A    between atoms: _87  and  _90
REMARK   39  A    between atoms: _90  and  _91
REMARK   40  A    between atoms: _94  and  _96
REMARK   41  A    between atoms: _96  and  _97
REMARK   42  A    between atoms: _96  and  _99
REMARK   43  A    between atoms: _99  and  _100
REMARK   44  A    between atoms: _102  and  _104
REMARK   45  A    between atoms: _104  and  _105
REMARK   46  A    between atoms: _104  and  _107
REMARK   47  A    between atoms: _107  and  _108
REMARK   48  A    between atoms: _113  and  _114
REMARK   49  A    between atoms: _116  and  _118
REMARK   50  A    between atoms: _118  and  _119
REMARK   51  A    between atoms: _118  and  _121
REMARK   52  A    between atoms: _121  and  _122
REMARK   53  A    between atoms: _127  and  _129
REMARK   54  A    between atoms: _129  and  _130
REMARK   55  A    between atoms: _133  and  _135
REMARK   56  A    between atoms: _135  and  _136
REMARK   57  A    between atoms: _135  and  _138
REMARK   58  A    between atoms: _138  and  _139
REMARK   59  A    between atoms: _139  and  _140
REMARK   60  A    between atoms: _145  and  _147
REMARK   61  A    between atoms: _147  and  _148
REMARK   62  A    between atoms: _147  and  _150
REMARK   63  A    between atoms: _150  and  _151
REMARK   64  A    between atoms: _156  and  _157
REMARK   65  A    between atoms: _159  and  _161
REMARK   66  A    between atoms: _161  and  _162
REMARK   67  A    between atoms: _161  and  _164
REMARK   68  A    between atoms: _164  and  _165
REMARK   69  A    between atoms: _165  and  _166
REMARK   70  A    between atoms: _168  and  _170
REMARK   71  A    between atoms: _170  and  _171
REMARK   72  A    between atoms: _170  and  _173
REMARK   73  A    between atoms: _173  and  _174
REMARK   74  A    between atoms: _177  and  _179
REMARK   75  A    between atoms: _179  and  _180
REMARK   76  A    between atoms: _179  and  _182
REMARK   77  A    between atoms: _182  and  _183
REMARK   78  A    between atoms: _186  and  _188
REMARK   79  A    between atoms: _188  and  _189
REMARK   80  A    between atoms: _188  and  _191
REMARK   81  A    between atoms: _191  and  _192
REMARK   82  A    between atoms: _195  and  _197
REMARK   83  A    between atoms: _197  and  _198
REMARK   84  A    between atoms: _197  and  _200
REMARK   85  A    between atoms: _200  and  _201
REMARK   86  A    between atoms: _204  and  _206
REMARK   87  A    between atoms: _206  and  _207
REMARK   88  A    between atoms: _206  and  _209
REMARK   89  A    between atoms: _209  and  _210
REMARK   90  A    between atoms: _217  and  _218
REMARK   91  A    between atoms: _223  and  _225
REMARK   92  A    between atoms: _225  and  _226
REMARK   93  A    between atoms: _225  and  _228
REMARK   94  A    between atoms: _228  and  _229
REMARK   95  A    between atoms: _234  and  _236
REMARK   96  A    between atoms: _236  and  _237
REMARK   97  A    between atoms: _236  and  _239
REMARK   98  A    between atoms: _239  and  _240
REMARK   99  A    between atoms: _242  and  _244
REMARK  100  A    between atoms: _244  and  _245
REMARK  101  A    between atoms: _244  and  _247
REMARK  102  A    between atoms: _247  and  _248
REMARK  103  A    between atoms: _248  and  _249
REMARK  104  A    between atoms: _254  and  _256
REMARK  105  A    between atoms: _256  and  _257
REMARK  106  A    between atoms: _256  and  _259
REMARK  107  A    between atoms: _259  and  _260
REMARK  108  A    between atoms: _262  and  _264
REMARK  109  A    between atoms: _264  and  _265
REMARK  110  A    between atoms: _267  and  _269
REMARK  111  A    between atoms: _269  and  _270
REMARK  112  A    between atoms: _269  and  _272
REMARK  113  A    between atoms: _272  and  _273
REMARK  114  A    between atoms: _276  and  _278
REMARK  115  A    between atoms: _278  and  _279
REMARK  116  A    between atoms: _278  and  _281
REMARK  117  A    between atoms: _281  and  _282
REMARK  118  A    between atoms: _287  and  _289
REMARK  119  A    between atoms: _289  and  _290
REMARK  120  A    between atoms: _289  and  _292
REMARK  121  A    between atoms: _292  and  _293
REMARK  122  A    between atoms: _296  and  _298
REMARK  123  A    between atoms: _298  and  _299
REMARK  124  A    between atoms: _302  and  _304
REMARK  125  A    between atoms: _304  and  _305
REMARK  126  A    between atoms: _304  and  _307
REMARK  127  A    between atoms: _307  and  _308
REMARK  128  A    between atoms: _313  and  _314
REMARK  129  A    between atoms: _316  and  _318
REMARK  130  A    between atoms: _318  and  _319
REMARK  131  A    between atoms: _318  and  _321
REMARK  132  A    between atoms: _321  and  _322
REMARK  133  A    between atoms: _327  and  _328
REMARK  134  A    between atoms: _330  and  _332
REMARK  135  A    between atoms: _332  and  _333
REMARK  136  A    between atoms: _332  and  _335
REMARK  137  A    between atoms: _335  and  _336
REMARK  138  A    between atoms: _336  and  _337
REMARK  139  A    between atoms: _342  and  _344
REMARK  140  A    between atoms: _344  and  _345
REMARK  141  A    between atoms: _344  and  _347
REMARK  142  A    between atoms: _350  and  _352
REMARK  143  A    between atoms: _352  and  _353
REMARK  144  A    between atoms: _352  and  _355
REMARK  145  A    between atoms: _358  and  _360
REMARK  146  A    between atoms: _360  and  _361
REMARK  147  A    between atoms: _360  and  _363
REMARK  148  A    between atoms: _363  and  _364
REMARK  149  A    between atoms: _364  and  _365
REMARK  150  A    between atoms: _365  and  _366
REMARK  151  A    between atoms: _375  and  _377
REMARK  152  A    between atoms: _377  and  _378
REMARK  153  A    between atoms: _381  and  _383
REMARK  154  A    between atoms: _383  and  _384
REMARK  155  A    between atoms: _383  and  _386
REMARK  156  A    between atoms: _386  and  _387
REMARK  157  A    between atoms: _389  and  _391
REMARK  158  A    between atoms: _391  and  _392
REMARK  159  A    between atoms: _391  and  _394
REMARK  160  A    between atoms: _394  and  _395
REMARK  161  A    between atoms: _400  and  _402
REMARK  162  A    between atoms: _402  and  _403
REMARK  163  A    between atoms: _402  and  _405
REMARK  164  A    between atoms: _405  and  _406
REMARK  165  A    between atoms: _416  and  _418
REMARK  166  A    between atoms: _418  and  _419
REMARK  167  A    between atoms: _418  and  _421
REMARK  168  A    between atoms: _421  and  _422
REMARK  169  A    between atoms: _425  and  _427
REMARK  170  A    between atoms: _427  and  _428
REMARK  171  A    between atoms: _427  and  _430
REMARK  172  A    between atoms: _430  and  _431
REMARK  173  A    between atoms: _436  and  _437
REMARK  174  A    between atoms: _439  and  _441
REMARK  175  A    between atoms: _441  and  _442
REMARK  176  A    between atoms: _444  and  _446
REMARK  177  A    between atoms: _446  and  _447
REMARK  178  A    between atoms: _446  and  _449
REMARK  179  A    between atoms: _449  and  _450
REMARK  180  A    between atoms: _460  and  _462
REMARK  181  A    between atoms: _462  and  _463
REMARK  182  A    between atoms: _462  and  _465
REMARK  183  A    between atoms: _465  and  _466
REMARK  184  A    between atoms: _468  and  _470
REMARK  185  A    between atoms: _470  and  _471
REMARK  186  A    between atoms: _473  and  _475
REMARK  187  A    between atoms: _475  and  _476
REMARK  188  A    between atoms: _475  and  _478
REMARK  189  A    between atoms: _478  and  _479
REMARK  190  A    between atoms: _482  and  _484
REMARK  191  A    between atoms: _484  and  _485
REMARK  192  A    between atoms: _484  and  _487
REMARK  193  A    between atoms: _487  and  _488
REMARK  194  A    between atoms: _493  and  _495
REMARK  195  A    between atoms: _495  and  _496
REMARK  196  A    between atoms: _495  and  _498
REMARK  197  A    between atoms: _498  and  _499
REMARK  198  A    between atoms: _504  and  _506
REMARK  199  A    between atoms: _506  and  _507
REMARK  200  A    between atoms: _506  and  _509
REMARK  201  A    between atoms: _509  and  _510
REMARK  202  A    between atoms: _517  and  _518
REMARK  203  A    between atoms: _523  and  _525
REMARK  204  A    between atoms: _525  and  _526
REMARK  205  A    between atoms: _525  and  _528
REMARK  206  A    between atoms: _528  and  _529
REMARK  207  A    between atoms: _532  and  _534
REMARK  208  A    between atoms: _534  and  _535
REMARK  209  A    between atoms: _534  and  _537
REMARK  210  A    between atoms: _537  and  _538
REMARK  211  A    between atoms: _540  and  _542
REMARK  212  A    between atoms: _542  and  _543
REMARK  213  A    between atoms: _542  and  _545
REMARK  214  A    between atoms: _545  and  _546
REMARK  215  A    between atoms: _551  and  _552
REMARK  216  A    between atoms: _554  and  _556
REMARK  217  A    between atoms: _556  and  _557
REMARK  218  A    between atoms: _556  and  _559
REMARK  219  A    between atoms: _559  and  _560
REMARK  220  A    between atoms: _562  and  _564
REMARK  221  A    between atoms: _564  and  _565
REMARK  222  A    between atoms: _564  and  _567
REMARK  223  A    between atoms: _567  and  _568
REMARK  224  A    between atoms: _571  and  _573
REMARK  225  A    between atoms: _573  and  _574
REMARK  226  A    between atoms: _573  and  _576
REMARK  227  A    between atoms: _576  and  _577
REMARK  228  A    between atoms: _582  and  _584
REMARK  229  A    between atoms: _584  and  _585
REMARK  230  A    between atoms: _584  and  _587
REMARK  231  A    between atoms: _587  and  _588
REMARK  232  A    between atoms: _594  and  _596
REMARK  233  A    between atoms: _596  and  _597
REMARK  234  A    between atoms: _601  and  _602
REMARK  235  A    between atoms: _607  and  _609
REMARK  236  A    between atoms: _609  and  _610
REMARK  237  A    between atoms: _609  and  _612
REMARK  238  A    between atoms: _612  and  _613
REMARK  239  A    between atoms: _618  and  _619
REMARK  240  A    between atoms: _621  and  _623
REMARK  241  A    between atoms: _623  and  _624
REMARK  242  A    between atoms: _623  and  _626
REMARK  243  A    between atoms: _626  and  _627
REMARK  244  A    between atoms: _627  and  _628
REMARK  245  A    between atoms: _628  and  _629
REMARK  246  A    between atoms: _629  and  _630
REMARK  247  A    between atoms: _634  and  _636
REMARK  248  A    between atoms: _636  and  _637
REMARK  249  A    between atoms: _636  and  _639
REMARK  250  A    between atoms: _639  and  _640
REMARK  251  A    between atoms: _640  and  _641
REMARK  252  A    between atoms: _646  and  _648
REMARK  253  A    between atoms: _648  and  _649
REMARK  254  A    between atoms: _648  and  _651
REMARK  255  A    between atoms: _651  and  _652
REMARK  256  A    between atoms: _655  and  _656
REMARK  257  A    between atoms: _661  and  _663
REMARK  258  A    between atoms: _663  and  _664
REMARK  259  A    between atoms: _663  and  _666
REMARK  260  A    between atoms: _666  and  _667
REMARK  261  A    between atoms: _673  and  _675
REMARK  262  A    between atoms: _675  and  _676
REMARK  263  A    between atoms: _678  and  _680
REMARK  264  A    between atoms: _680  and  _681
REMARK  265  A    between atoms: _680  and  _683
REMARK  266  A    between atoms: _683  and  _684
REMARK  267  A    between atoms: _689  and  _690
REMARK  268  A    between atoms: _692  and  _694
REMARK  269  A    between atoms: _694  and  _695
REMARK  270  A    between atoms: _694  and  _697
REMARK  271  A    between atoms: _697  and  _698
REMARK  272  A    between atoms: _701  and  _703
REMARK  273  A    between atoms: _703  and  _704
REMARK  274  A    between atoms: _703  and  _706
REMARK  275  A    between atoms: _706  and  _707
REMARK  276  A    between atoms: _712  and  _713
REMARK                            x       y       z     vdW  Elec       q    Type
REMARK                         _______ _______ _______ _____ _____    ______ ____
ROOT
ATOM      1  O   HOH     1      16.033 -21.272 -23.897  0.00  0.00    +0.000 OA
ENDROOT
TORSDOF 0
REMARK  Name = ../refined-set-2016/3m8u/3m8u_pocket.pdb
REMARK  276 active torsions:
REMARK  status: ('A' for Active; 'I' for Inactive)
REMARK    1  A    between atoms: _1  and  _3
REMARK    2  A    between atoms: _3  and  _4
REMARK    3  A    between atoms: _3  and  _6
REMARK    4  A    between atoms: _6  and  _7
REMARK    5  A    between atoms: _12  and  _14
REMARK    6  A    between atoms: _14  and  _15
REMARK    7  A    between atoms: _14  and  _17
REMARK    8  A    between atoms: _20  and  _22
REMARK    9  A    between atoms: _22  and  _23
REMARK   10  A    between atoms: _22  and  _25
REMARK   11  A    between atoms: _25  and  _26
REMARK   12  A    between atoms: _28  and  _30
REMARK   13  A    between atoms: _30  and  _31
REMARK   14  A    between atoms: _30  and  _33
REMARK   15  A    between atoms: _33  and  _34
REMARK   16  A    between atoms: _34  and  _35
REMARK   17  A    between atoms: _35  and  _36
REMARK   18  A    between atoms: _45  and  _47
REMARK   19  A    between atoms: _47  and  _48
REMARK   20  A    between atoms: _47  and  _50
REMARK   21  A    between atoms: _50  and  _51
REMARK   22  A    between atoms: _54  and  _56
REMARK   23  A    between atoms: _56  and  _57
REMARK   24  A    between atoms: _56  and  _59
REMARK   25  A    between atoms: _62  and  _64
REMARK   26  A    between atoms: _64  and  _65
REMARK   27  A    between atoms: _64  and  _67
REMARK   28  A    between atoms: _67  and  _68
REMARK   29  A    between atoms: _68  and  _69
REMARK   30  A    between atoms: _71  and  _73
REMARK   31  A    between atoms: _73  and  _74
REMARK   32  A    between atoms: _73  and  _76
REMARK   33  A    between atoms: _76  and  _77
REMARK   34  A    between atoms: _80  and  _82
REMARK   35  A    between atoms: _82  and  _83
REMARK   36  A    between atoms: _85  and  _87
REMARK   37  A    between atoms: _87  and  _88
REMARK   38  A    between atoms: _87  and  _90
REMARK   39  A    between atoms: _90  and  _91
REMARK   40  A    between atoms: _94  and  _96
REMARK   41  A    between atoms: _96  and  _97
REMARK   42  A    between atoms: _96  and  _99
REMARK   43  A    between atoms: _99  and  _100
REMARK   44  A    between atoms: _102  and  _104
REMARK   45  A    between atoms: _104  and  _105
REMARK   46  A    between atoms: _104  and  _107
REMARK   47  A    between atoms: _107  and  _108
REMARK   48  A    between atoms: _113  and  _114
REMARK   49  A    between atoms: _116  and  _118
REMARK   50  A    between atoms: _118  and  _119
REMARK   51  A    between atoms: _118  and  _121
REMARK   52  A    between atoms: _121  and  _122
REMARK   53  A    between atoms: _127  and  _129
REMARK   54  A    between atoms: _129  and  _130
REMARK   55  A    between atoms: _133  and  _135
REMARK   56  A    between atoms: _135  and  _136
REMARK   57  A    between atoms: _135  and  _138
REMARK   58  A    between atoms: _138  and  _139
REMARK   59  A    between atoms: _139  and  _140
REMARK   60  A    between atoms: _145  and  _147
REMARK   61  A    between atoms: _147  and  _148
REMARK   62  A    between atoms: _147  and  _150
REMARK   63  A    between atoms: _150  and  _151
REMARK   64  A    between atoms: _156  and  _157
REMARK   65  A    between atoms: _159  and  _161
REMARK   66  A    between atoms: _161  and  _162
REMARK   67  A    between atoms: _161  and  _164
REMARK   68  A    between atoms: _164  and  _165
REMARK   69  A    between atoms: _165  and  _166
REMARK   70  A    between atoms: _168  and  _170
REMARK   71  A    between atoms: _170  and  _171
REMARK   72  A    between atoms: _170  and  _173
REMARK   73  A    between atoms: _173  and  _174
REMARK   74  A    between atoms: _177  and  _179
REMARK   75  A    between atoms: _179  and  _180
REMARK   76  A    between atoms: _179  and  _182
REMARK   77  A    between atoms: _182  and  _183
REMARK   78  A    between atoms: _186  and  _188
REMARK   79  A    between atoms: _188  and  _189
REMARK   80  A    between atoms: _188  and  _191
REMARK   81  A    between atoms: _191  and  _192
REMARK   82  A    between atoms: _195  and  _197
REMARK   83  A    between atoms: _197  and  _198
REMARK   84  A    between atoms: _197  and  _200
REMARK   85  A    between atoms: _200  and  _201
REMARK   86  A    between atoms: _204  and  _206
REMARK   87  A    between atoms: _206  and  _207
REMARK   88  A    between atoms: _206  and  _209
REMARK   89  A    between atoms: _209  and  _210
REMARK   90  A    between atoms: _217  and  _218
REMARK   91  A    between atoms: _223  and  _225
REMARK   92  A    between atoms: _225  and  _226
REMARK   93  A    between atoms: _225  and  _228
REMARK   94  A    between atoms: _228  and  _229
REMARK   95  A    between atoms: _234  and  _236
REMARK   96  A    between atoms: _236  and  _237
REMARK   97  A    between atoms: _236  and  _239
REMARK   98  A    between atoms: _239  and  _240
REMARK   99  A    between atoms: _242  and  _244
REMARK  100  A    between atoms: _244  and  _245
REMARK  101  A    between atoms: _244  and  _247
REMARK  102  A    between atoms: _247  and  _248
REMARK  103  A    between atoms: _248  and  _249
REMARK  104  A    between atoms: _254  and  _256
REMARK  105  A    between atoms: _256  and  _257
REMARK  106  A    between atoms: _256  and  _259
REMARK  107  A    between atoms: _259  and  _260
REMARK  108  A    between atoms: _262  and  _264
REMARK  109  A    between atoms: _264  and  _265
REMARK  110  A    between atoms: _267  and  _269
REMARK  111  A    between atoms: _269  and  _270
REMARK  112  A    between atoms: _269  and  _272
REMARK  113  A    between atoms: _272  and  _273
REMARK  114  A    between atoms: _276  and  _278
REMARK  115  A    between atoms: _278  and  _279
REMARK  116  A    between atoms: _278  and  _281
REMARK  117  A    between atoms: _281  and  _282
REMARK  118  A    between atoms: _287  and  _289
REMARK  119  A    between atoms: _289  and  _290
REMARK  120  A    between atoms: _289  and  _292
REMARK  121  A    between atoms: _292  and  _293
REMARK  122  A    between atoms: _296  and  _298
REMARK  123  A    between atoms: _298  and  _299
REMARK  124  A    between atoms: _302  and  _304
REMARK  125  A    between atoms: _304  and  _305
REMARK  126  A    between atoms: _304  and  _307
REMARK  127  A    between atoms: _307  and  _308
REMARK  128  A    between atoms: _313  and  _314
REMARK  129  A    between atoms: _316  and  _318
REMARK  130  A    between atoms: _318  and  _319
REMARK  131  A    between atoms: _318  and  _321
REMARK  132  A    between atoms: _321  and  _322
REMARK  133  A    between atoms: _327  and  _328
REMARK  134  A    between atoms: _330  and  _332
REMARK  135  A    between atoms: _332  and  _333
REMARK  136  A    between atoms: _332  and  _335
REMARK  137  A    between atoms: _335  and  _336
REMARK  138  A    between atoms: _336  and  _337
REMARK  139  A    between atoms: _342  and  _344
REMARK  140  A    between atoms: _344  and  _345
REMARK  141  A    between atoms: _344  and  _347
REMARK  142  A    between atoms: _350  and  _352
REMARK  143  A    between atoms: _352  and  _353
REMARK  144  A    between atoms: _352  and  _355
REMARK  145  A    between atoms: _358  and  _360
REMARK  146  A    between atoms: _360  and  _361
REMARK  147  A    between atoms: _360  and  _363
REMARK  148  A    between atoms: _363  and  _364
REMARK  149  A    between atoms: _364  and  _365
REMARK  150  A    between atoms: _365  and  _366
REMARK  151  A    between atoms: _375  and  _377
REMARK  152  A    between atoms: _377  and  _378
REMARK  153  A    between atoms: _381  and  _383
REMARK  154  A    between atoms: _383  and  _384
REMARK  155  A    between atoms: _383  and  _386
REMARK  156  A    between atoms: _386  and  _387
REMARK  157  A    between atoms: _389  and  _391
REMARK  158  A    between atoms: _391  and  _392
REMARK  159  A    between atoms: _391  and  _394
REMARK  160  A    between atoms: _394  and  _395
REMARK  161  A    between atoms: _400  and  _402
REMARK  162  A    between atoms: _402  and  _403
REMARK  163  A    between atoms: _402  and  _405
REMARK  164  A    between atoms: _405  and  _406
REMARK  165  A    between atoms: _416  and  _418
REMARK  166  A    between atoms: _418  and  _419
REMARK  167  A    between atoms: _418  and  _421
REMARK  168  A    between atoms: _421  and  _422
REMARK  169  A    between atoms: _425  and  _427
REMARK  170  A    between atoms: _427  and  _428
REMARK  171  A    between atoms: _427  and  _430
REMARK  172  A    between atoms: _430  and  _431
REMARK  173  A    between atoms: _436  and  _437
REMARK  174  A    between atoms: _439  and  _441
REMARK  175  A    between atoms: _441  and  _442
REMARK  176  A    between atoms: _444  and  _446
REMARK  177  A    between atoms: _446  and  _447
REMARK  178  A    between atoms: _446  and  _449
REMARK  179  A    between atoms: _449  and  _450
REMARK  180  A    between atoms: _460  and  _462
REMARK  181  A    between atoms: _462  and  _463
REMARK  182  A    between atoms: _462  and  _465
REMARK  183  A    between atoms: _465  and  _466
REMARK  184  A    between atoms: _468  and  _470
REMARK  185  A    between atoms: _470  and  _471
REMARK  186  A    between atoms: _473  and  _475
REMARK  187  A    between atoms: _475  and  _476
REMARK  188  A    between atoms: _475  and  _478
REMARK  189  A    between atoms: _478  and  _479
REMARK  190  A    between atoms: _482  and  _484
REMARK  191  A    between atoms: _484  and  _485
REMARK  192  A    between atoms: _484  and  _487
REMARK  193  A    between atoms: _487  and  _488
REMARK  194  A    between atoms: _493  and  _495
REMARK  195  A    between atoms: _495  and  _496
REMARK  196  A    between atoms: _495  and  _498
REMARK  197  A    between atoms: _498  and  _499
REMARK  198  A    between atoms: _504  and  _506
REMARK  199  A    between atoms: _506  and  _507
REMARK  200  A    between atoms: _506  and  _509
REMARK  201  A    between atoms: _509  and  _510
REMARK  202  A    between atoms: _517  and  _518
REMARK  203  A    between atoms: _523  and  _525
REMARK  204  A    between atoms: _525  and  _526
REMARK  205  A    between atoms: _525  and  _528
REMARK  206  A    between atoms: _528  and  _529
REMARK  207  A    between atoms: _532  and  _534
REMARK  208  A    between atoms: _534  and  _535
REMARK  209  A    between atoms: _534  and  _537
REMARK  210  A    between atoms: _537  and  _538
REMARK  211  A    between atoms: _540  and  _542
REMARK  212  A    between atoms: _542  and  _543
REMARK  213  A    between atoms: _542  and  _545
REMARK  214  A    between atoms: _545  and  _546
REMARK  215  A    between atoms: _551  and  _552
REMARK  216  A    between atoms: _554  and  _556
REMARK  217  A    between atoms: _556  and  _557
REMARK  218  A    between atoms: _556  and  _559
REMARK  219  A    between atoms: _559  and  _560
REMARK  220  A    between atoms: _562  and  _564
REMARK  221  A    between atoms: _564  and  _565
REMARK  222  A    between atoms: _564  and  _567
REMARK  223  A    between atoms: _567  and  _568
REMARK  224  A    between atoms: _571  and  _573
REMARK  225  A    between atoms: _573  and  _574
REMARK  226  A    between atoms: _573  and  _576
REMARK  227  A    between atoms: _576  and  _577
REMARK  228  A    between atoms: _582  and  _584
REMARK  229  A    between atoms: _584  and  _585
REMARK  230  A    between atoms: _584  and  _587
REMARK  231  A    between atoms: _587  and  _588
REMARK  232  A    between atoms: _594  and  _596
REMARK  233  A    between atoms: _596  and  _597
REMARK  234  A    between atoms: _601  and  _602
REMARK  235  A    between atoms: _607  and  _609
REMARK  236  A    between atoms: _609  and  _610
REMARK  237  A    between atoms: _609  and  _612
REMARK  238  A    between atoms: _612  and  _613
REMARK  239  A    between atoms: _618  and  _619
REMARK  240  A    between atoms: _621  and  _623
REMARK  241  A    between atoms: _623  and  _624
REMARK  242  A    between atoms: _623  and  _626
REMARK  243  A    between atoms: _626  and  _627
REMARK  244  A    between atoms: _627  and  _628
REMARK  245  A    between atoms: _628  and  _629
REMARK  246  A    between atoms: _629  and  _630
REMARK  247  A    between atoms: _634  and  _636
REMARK  248  A    between atoms: _636  and  _637
REMARK  249  A    between atoms: _636  and  _639
REMARK  250  A    between atoms: _639  and  _640
REMARK  251  A    between atoms: _640  and  _641
REMARK  252  A    between atoms: _646  and  _648
REMARK  253  A    between atoms: _648  and  _649
REMARK  254  A    between atoms: _648  and  _651
REMARK  255  A    between atoms: _651  and  _652
REMARK  256  A    between atoms: _655  and  _656
REMARK  257  A    between atoms: _661  and  _663
REMARK  258  A    between atoms: _663  and  _664
REMARK  259  A    between atoms: _663  and  _666
REMARK  260  A    between atoms: _666  and  _667
REMARK  261  A    between atoms: _673  and  _675
REMARK  262  A    between atoms: _675  and  _676
REMARK  263  A    between atoms: _678  and  _680
REMARK  264  A    between atoms: _680  and  _681
REMARK  265  A    between atoms: _680  and  _683
REMARK  266  A    between atoms: _683  and  _684
REMARK  267  A    between atoms: _689  and  _690
REMARK  268  A    between atoms: _692  and  _694
REMARK  269  A    between atoms: _694  and  _695
REMARK  270  A    between atoms: _694  and  _697
REMARK  271  A    between atoms: _697  and  _698
REMARK  272  A    between atoms: _701  and  _703
REMARK  273  A    between atoms: _703  and  _704
REMARK  274  A    between atoms: _703  and  _706
REMARK  275  A    between atoms: _706  and  _707
REMARK  276  A    between atoms: _712  and  _713
REMARK                            x       y       z     vdW  Elec       q    Type
REMARK                         _______ _______ _______ _____ _____    ______ ____
ROOT
ATOM      1  O   HOH     1      18.774  -9.983 -15.208  0.00  0.00    +0.000 OA
ENDROOT
TORSDOF 0
REMARK  Name = ../refined-set-2016/3m8u/3m8u_pocket.pdb
REMARK  276 active torsions:
REMARK  status: ('A' for Active; 'I' for Inactive)
REMARK    1  A    between atoms: _1  and  _3
REMARK    2  A    between atoms: _3  and  _4
REMARK    3  A    between atoms: _3  and  _6
REMARK    4  A    between atoms: _6  and  _7
REMARK    5  A    between atoms: _12  and  _14
REMARK    6  A    between atoms: _14  and  _15
REMARK    7  A    between atoms: _14  and  _17
REMARK    8  A    between atoms: _20  and  _22
REMARK    9  A    between atoms: _22  and  _23
REMARK   10  A    between atoms: _22  and  _25
REMARK   11  A    between atoms: _25  and  _26
REMARK   12  A    between atoms: _28  and  _30
REMARK   13  A    between atoms: _30  and  _31
REMARK   14  A    between atoms: _30  and  _33
REMARK   15  A    between atoms: _33  and  _34
REMARK   16  A    between atoms: _34  and  _35
REMARK   17  A    between atoms: _35  and  _36
REMARK   18  A    between atoms: _45  and  _47
REMARK   19  A    between atoms: _47  and  _48
REMARK   20  A    between atoms: _47  and  _50
REMARK   21  A    between atoms: _50  and  _51
REMARK   22  A    between atoms: _54  and  _56
REMARK   23  A    between atoms: _56  and  _57
REMARK   24  A    between atoms: _56  and  _59
REMARK   25  A    between atoms: _62  and  _64
REMARK   26  A    between atoms: _64  and  _65
REMARK   27  A    between atoms: _64  and  _67
REMARK   28  A    between atoms: _67  and  _68
REMARK   29  A    between atoms: _68  and  _69
REMARK   30  A    between atoms: _71  and  _73
REMARK   31  A    between atoms: _73  and  _74
REMARK   32  A    between atoms: _73  and  _76
REMARK   33  A    between atoms: _76  and  _77
REMARK   34  A    between atoms: _80  and  _82
REMARK   35  A    between atoms: _82  and  _83
REMARK   36  A    between atoms: _85  and  _87
REMARK   37  A    between atoms: _87  and  _88
REMARK   38  A    between atoms: _87  and  _90
REMARK   39  A    between atoms: _90  and  _91
REMARK   40  A    between atoms: _94  and  _96
REMARK   41  A    between atoms: _96  and  _97
REMARK   42  A    between atoms: _96  and  _99
REMARK   43  A    between atoms: _99  and  _100
REMARK   44  A    between atoms: _102  and  _104
REMARK   45  A    between atoms: _104  and  _105
REMARK   46  A    between atoms: _104  and  _107
REMARK   47  A    between atoms: _107  and  _108
REMARK   48  A    between atoms: _113  and  _114
REMARK   49  A    between atoms: _116  and  _118
REMARK   50  A    between atoms: _118  and  _119
REMARK   51  A    between atoms: _118  and  _121
REMARK   52  A    between atoms: _121  and  _122
REMARK   53  A    between atoms: _127  and  _129
REMARK   54  A    between atoms: _129  and  _130
REMARK   55  A    between atoms: _133  and  _135
REMARK   56  A    between atoms: _135  and  _136
REMARK   57  A    between atoms: _135  and  _138
REMARK   58  A    between atoms: _138  and  _139
REMARK   59  A    between atoms: _139  and  _140
REMARK   60  A    between atoms: _145  and  _147
REMARK   61  A    between atoms: _147  and  _148
REMARK   62  A    between atoms: _147  and  _150
REMARK   63  A    between atoms: _150  and  _151
REMARK   64  A    between atoms: _156  and  _157
REMARK   65  A    between atoms: _159  and  _161
REMARK   66  A    between atoms: _161  and  _162
REMARK   67  A    between atoms: _161  and  _164
REMARK   68  A    between atoms: _164  and  _165
REMARK   69  A    between atoms: _165  and  _166
REMARK   70  A    between atoms: _168  and  _170
REMARK   71  A    between atoms: _170  and  _171
REMARK   72  A    between atoms: _170  and  _173
REMARK   73  A    between atoms: _173  and  _174
REMARK   74  A    between atoms: _177  and  _179
REMARK   75  A    between atoms: _179  and  _180
REMARK   76  A    between atoms: _179  and  _182
REMARK   77  A    between atoms: _182  and  _183
REMARK   78  A    between atoms: _186  and  _188
REMARK   79  A    between atoms: _188  and  _189
REMARK   80  A    between atoms: _188  and  _191
REMARK   81  A    between atoms: _191  and  _192
REMARK   82  A    between atoms: _195  and  _197
REMARK   83  A    between atoms: _197  and  _198
REMARK   84  A    between atoms: _197  and  _200
REMARK   85  A    between atoms: _200  and  _201
REMARK   86  A    between atoms: _204  and  _206
REMARK   87  A    between atoms: _206  and  _207
REMARK   88  A    between atoms: _206  and  _209
REMARK   89  A    between atoms: _209  and  _210
REMARK   90  A    between atoms: _217  and  _218
REMARK   91  A    between atoms: _223  and  _225
REMARK   92  A    between atoms: _225  and  _226
REMARK   93  A    between atoms: _225  and  _228
REMARK   94  A    between atoms: _228  and  _229
REMARK   95  A    between atoms: _234  and  _236
REMARK   96  A    between atoms: _236  and  _237
REMARK   97  A    between atoms: _236  and  _239
REMARK   98  A    between atoms: _239  and  _240
REMARK   99  A    between atoms: _242  and  _244
REMARK  100  A    between atoms: _244  and  _245
REMARK  101  A    between atoms: _244  and  _247
REMARK  102  A    between atoms: _247  and  _248
REMARK  103  A    between atoms: _248  and  _249
REMARK  104  A    between atoms: _254  and  _256
REMARK  105  A    between atoms: _256  and  _257
REMARK  106  A    between atoms: _256  and  _259
REMARK  107  A    between atoms: _259  and  _260
REMARK  108  A    between atoms: _262  and  _264
REMARK  109  A    between atoms: _264  and  _265
REMARK  110  A    between atoms: _267  and  _269
REMARK  111  A    between atoms: _269  and  _270
REMARK  112  A    between atoms: _269  and  _272
REMARK  113  A    between atoms: _272  and  _273
REMARK  114  A    between atoms: _276  and  _278
REMARK  115  A    between atoms: _278  and  _279
REMARK  116  A    between atoms: _278  and  _281
REMARK  117  A    between atoms: _281  and  _282
REMARK  118  A    between atoms: _287  and  _289
REMARK  119  A    between atoms: _289  and  _290
REMARK  120  A    between atoms: _289  and  _292
REMARK  121  A    between atoms: _292  and  _293
REMARK  122  A    between atoms: _296  and  _298
REMARK  123  A    between atoms: _298  and  _299
REMARK  124  A    between atoms: _302  and  _304
REMARK  125  A    between atoms: _304  and  _305
REMARK  126  A    between atoms: _304  and  _307
REMARK  127  A    between atoms: _307  and  _308
REMARK  128  A    between atoms: _313  and  _314
REMARK  129  A    between atoms: _316  and  _318
REMARK  130  A    between atoms: _318  and  _319
REMARK  131  A    between atoms: _318  and  _321
REMARK  132  A    between atoms: _321  and  _322
REMARK  133  A    between atoms: _327  and  _328
REMARK  134  A    between atoms: _330  and  _332
REMARK  135  A    between atoms: _332  and  _333
REMARK  136  A    between atoms: _332  and  _335
REMARK  137  A    between atoms: _335  and  _336
REMARK  138  A    between atoms: _336  and  _337
REMARK  139  A    between atoms: _342  and  _344
REMARK  140  A    between atoms: _344  and  _345
REMARK  141  A    between atoms: _344  and  _347
REMARK  142  A    between atoms: _350  and  _352
REMARK  143  A    between atoms: _352  and  _353
REMARK  144  A    between atoms: _352  and  _355
REMARK  145  A    between atoms: _358  and  _360
REMARK  146  A    between atoms: _360  and  _361
REMARK  147  A    between atoms: _360  and  _363
REMARK  148  A    between atoms: _363  and  _364
REMARK  149  A    between atoms: _364  and  _365
REMARK  150  A    between atoms: _365  and  _366
REMARK  151  A    between atoms: _375  and  _377
REMARK  152  A    between atoms: _377  and  _378
REMARK  153  A    between atoms: _381  and  _383
REMARK  154  A    between atoms: _383  and  _384
REMARK  155  A    between atoms: _383  and  _386
REMARK  156  A    between atoms: _386  and  _387
REMARK  157  A    between atoms: _389  and  _391
REMARK  158  A    between atoms: _391  and  _392
REMARK  159  A    between atoms: _391  and  _394
REMARK  160  A    between atoms: _394  and  _395
REMARK  161  A    between atoms: _400  and  _402
REMARK  162  A    between atoms: _402  and  _403
REMARK  163  A    between atoms: _402  and  _405
REMARK  164  A    between atoms: _405  and  _406
REMARK  165  A    between atoms: _416  and  _418
REMARK  166  A    between atoms: _418  and  _419
REMARK  167  A    between atoms: _418  and  _421
REMARK  168  A    between atoms: _421  and  _422
REMARK  169  A    between atoms: _425  and  _427
REMARK  170  A    between atoms: _427  and  _428
REMARK  171  A    between atoms: _427  and  _430
REMARK  172  A    between atoms: _430  and  _431
REMARK  173  A    between atoms: _436  and  _437
REMARK  174  A    between atoms: _439  and  _441
REMARK  175  A    between atoms: _441  and  _442
REMARK  176  A    between atoms: _444  and  _446
REMARK  177  A    between atoms: _446  and  _447
REMARK  178  A    between atoms: _446  and  _449
REMARK  179  A    between atoms: _449  and  _450
REMARK  180  A    between atoms: _460  and  _462
REMARK  181  A    between atoms: _462  and  _463
REMARK  182  A    between atoms: _462  and  _465
REMARK  183  A    between atoms: _465  and  _466
REMARK  184  A    between atoms: _468  and  _470
REMARK  185  A    between atoms: _470  and  _471
REMARK  186  A    between atoms: _473  and  _475
REMARK  187  A    between atoms: _475  and  _476
REMARK  188  A    between atoms: _475  and  _478
REMARK  189  A    between atoms: _478  and  _479
REMARK  190  A    between atoms: _482  and  _484
REMARK  191  A    between atoms: _484  and  _485
REMARK  192  A    between atoms: _484  and  _487
REMARK  193  A    between atoms: _487  and  _488
REMARK  194  A    between atoms: _493  and  _495
REMARK  195  A    between atoms: _495  and  _496
REMARK  196  A    between atoms: _495  and  _498
REMARK  197  A    between atoms: _498  and  _499
REMARK  198  A    between atoms: _504  and  _506
REMARK  199  A    between atoms: _506  and  _507
REMARK  200  A    between atoms: _506  and  _509
REMARK  201  A    between atoms: _509  and  _510
REMARK  202  A    between atoms: _517  and  _518
REMARK  203  A    between atoms: _523  and  _525
REMARK  204  A    between atoms: _525  and  _526
REMARK  205  A    between atoms: _525  and  _528
REMARK  206  A    between atoms: _528  and  _529
REMARK  207  A    between atoms: _532  and  _534
REMARK  208  A    between atoms: _534  and  _535
REMARK  209  A    between atoms: _534  and  _537
REMARK  210  A    between atoms: _537  and  _538
REMARK  211  A    between atoms: _540  and  _542
REMARK  212  A    between atoms: _542  and  _543
REMARK  213  A    between atoms: _542  and  _545
REMARK  214  A    between atoms: _545  and  _546
REMARK  215  A    between atoms: _551  and  _552
REMARK  216  A    between atoms: _554  and  _556
REMARK  217  A    between atoms: _556  and  _557
REMARK  218  A    between atoms: _556  and  _559
REMARK  219  A    between atoms: _559  and  _560
REMARK  220  A    between atoms: _562  and  _564
REMARK  221  A    between atoms: _564  and  _565
REMARK  222  A    between atoms: _564  and  _567
REMARK  223  A    between atoms: _567  and  _568
REMARK  224  A    between atoms: _571  and  _573
REMARK  225  A    between atoms: _573  and  _574
REMARK  226  A    between atoms: _573  and  _576
REMARK  227  A    between atoms: _576  and  _577
REMARK  228  A    between atoms: _582  and  _584
REMARK  229  A    between atoms: _584  and  _585
REMARK  230  A    between atoms: _584  and  _587
REMARK  231  A    between atoms: _587  and  _588
REMARK  232  A    between atoms: _594  and  _596
REMARK  233  A    between atoms: _596  and  _597
REMARK  234  A    between atoms: _601  and  _602
REMARK  235  A    between atoms: _607  and  _609
REMARK  236  A    between atoms: _609  and  _610
REMARK  237  A    between atoms: _609  and  _612
REMARK  238  A    between atoms: _612  and  _613
REMARK  239  A    between atoms: _618  and  _619
REMARK  240  A    between atoms: _621  and  _623
REMARK  241  A    between atoms: _623  and  _624
REMARK  242  A    between atoms: _623  and  _626
REMARK  243  A    between atoms: _626  and  _627
REMARK  244  A    between atoms: _627  and  _628
REMARK  245  A    between atoms: _628  and  _629
REMARK  246  A    between atoms: _629  and  _630
REMARK  247  A    between atoms: _634  and  _636
REMARK  248  A    between atoms: _636  and  _637
REMARK  249  A    between atoms: _636  and  _639
REMARK  250  A    between atoms: _639  and  _640
REMARK  251  A    between atoms: _640  and  _641
REMARK  252  A    between atoms: _646  and  _648
REMARK  253  A    between atoms: _648  and  _649
REMARK  254  A    between atoms: _648  and  _651
REMARK  255  A    between atoms: _651  and  _652
REMARK  256  A    between atoms: _655  and  _656
REMARK  257  A    between atoms: _661  and  _663
REMARK  258  A    between atoms: _663  and  _664
REMARK  259  A    between atoms: _663  and  _666
REMARK  260  A    between atoms: _666  and  _667
REMARK  261  A    between atoms: _673  and  _675
REMARK  262  A    between atoms: _675  and  _676
REMARK  263  A    between atoms: _678  and  _680
REMARK  264  A    between atoms: _680  and  _681
REMARK  265  A    between atoms: _680  and  _683
REMARK  266  A    between atoms: _683  and  _684
REMARK  267  A    between atoms: _689  and  _690
REMARK  268  A    between atoms: _692  and  _694
REMARK  269  A    between atoms: _694  and  _695
REMARK  270  A    between atoms: _694  and  _697
REMARK  271  A    between atoms: _697  and  _698
REMARK  272  A    between atoms: _701  and  _703
REMARK  273  A    between atoms: _703  and  _704
REMARK  274  A    between atoms: _703  and  _706
REMARK  275  A    between atoms: _706  and  _707
REMARK  276  A    between atoms: _712  and  _713
REMARK                            x       y       z     vdW  Elec       q    Type
REMARK                         _______ _______ _______ _____ _____    ______ ____
ROOT
ATOM      1  O   HOH     1      13.010  -9.809  -7.968  0.00  0.00    +0.000 OA
ENDROOT
TORSDOF 0
REMARK  Name = ../refined-set-2016/3m8u/3m8u_pocket.pdb
REMARK  276 active torsions:
REMARK  status: ('A' for Active; 'I' for Inactive)
REMARK    1  A    between atoms: _1  and  _3
REMARK    2  A    between atoms: _3  and  _4
REMARK    3  A    between atoms: _3  and  _6
REMARK    4  A    between atoms: _6  and  _7
REMARK    5  A    between atoms: _12  and  _14
REMARK    6  A    between atoms: _14  and  _15
REMARK    7  A    between atoms: _14  and  _17
REMARK    8  A    between atoms: _20  and  _22
REMARK    9  A    between atoms: _22  and  _23
REMARK   10  A    between atoms: _22  and  _25
REMARK   11  A    between atoms: _25  and  _26
REMARK   12  A    between atoms: _28  and  _30
REMARK   13  A    between atoms: _30  and  _31
REMARK   14  A    between atoms: _30  and  _33
REMARK   15  A    between atoms: _33  and  _34
REMARK   16  A    between atoms: _34  and  _35
REMARK   17  A    between atoms: _35  and  _36
REMARK   18  A    between atoms: _45  and  _47
REMARK   19  A    between atoms: _47  and  _48
REMARK   20  A    between atoms: _47  and  _50
REMARK   21  A    between atoms: _50  and  _51
REMARK   22  A    between atoms: _54  and  _56
REMARK   23  A    between atoms: _56  and  _57
REMARK   24  A    between atoms: _56  and  _59
REMARK   25  A    between atoms: _62  and  _64
REMARK   26  A    between atoms: _64  and  _65
REMARK   27  A    between atoms: _64  and  _67
REMARK   28  A    between atoms: _67  and  _68
REMARK   29  A    between atoms: _68  and  _69
REMARK   30  A    between atoms: _71  and  _73
REMARK   31  A    between atoms: _73  and  _74
REMARK   32  A    between atoms: _73  and  _76
REMARK   33  A    between atoms: _76  and  _77
REMARK   34  A    between atoms: _80  and  _82
REMARK   35  A    between atoms: _82  and  _83
REMARK   36  A    between atoms: _85  and  _87
REMARK   37  A    between atoms: _87  and  _88
REMARK   38  A    between atoms: _87  and  _90
REMARK   39  A    between atoms: _90  and  _91
REMARK   40  A    between atoms: _94  and  _96
REMARK   41  A    between atoms: _96  and  _97
REMARK   42  A    between atoms: _96  and  _99
REMARK   43  A    between atoms: _99  and  _100
REMARK   44  A    between atoms: _102  and  _104
REMARK   45  A    between atoms: _104  and  _105
REMARK   46  A    between atoms: _104  and  _107
REMARK   47  A    between atoms: _107  and  _108
REMARK   48  A    between atoms: _113  and  _114
REMARK   49  A    between atoms: _116  and  _118
REMARK   50  A    between atoms: _118  and  _119
REMARK   51  A    between atoms: _118  and  _121
REMARK   52  A    between atoms: _121  and  _122
REMARK   53  A    between atoms: _127  and  _129
REMARK   54  A    between atoms: _129  and  _130
REMARK   55  A    between atoms: _133  and  _135
REMARK   56  A    between atoms: _135  and  _136
REMARK   57  A    between atoms: _135  and  _138
REMARK   58  A    between atoms: _138  and  _139
REMARK   59  A    between atoms: _139  and  _140
REMARK   60  A    between atoms: _145  and  _147
REMARK   61  A    between atoms: _147  and  _148
REMARK   62  A    between atoms: _147  and  _150
REMARK   63  A    between atoms: _150  and  _151
REMARK   64  A    between atoms: _156  and  _157
REMARK   65  A    between atoms: _159  and  _161
REMARK   66  A    between atoms: _161  and  _162
REMARK   67  A    between atoms: _161  and  _164
REMARK   68  A    between atoms: _164  and  _165
REMARK   69  A    between atoms: _165  and  _166
REMARK   70  A    between atoms: _168  and  _170
REMARK   71  A    between atoms: _170  and  _171
REMARK   72  A    between atoms: _170  and  _173
REMARK   73  A    between atoms: _173  and  _174
REMARK   74  A    between atoms: _177  and  _179
REMARK   75  A    between atoms: _179  and  _180
REMARK   76  A    between atoms: _179  and  _182
REMARK   77  A    between atoms: _182  and  _183
REMARK   78  A    between atoms: _186  and  _188
REMARK   79  A    between atoms: _188  and  _189
REMARK   80  A    between atoms: _188  and  _191
REMARK   81  A    between atoms: _191  and  _192
REMARK   82  A    between atoms: _195  and  _197
REMARK   83  A    between atoms: _197  and  _198
REMARK   84  A    between atoms: _197  and  _200
REMARK   85  A    between atoms: _200  and  _201
REMARK   86  A    between atoms: _204  and  _206
REMARK   87  A    between atoms: _206  and  _207
REMARK   88  A    between atoms: _206  and  _209
REMARK   89  A    between atoms: _209  and  _210
REMARK   90  A    between atoms: _217  and  _218
REMARK   91  A    between atoms: _223  and  _225
REMARK   92  A    between atoms: _225  and  _226
REMARK   93  A    between atoms: _225  and  _228
REMARK   94  A    between atoms: _228  and  _229
REMARK   95  A    between atoms: _234  and  _236
REMARK   96  A    between atoms: _236  and  _237
REMARK   97  A    between atoms: _236  and  _239
REMARK   98  A    between atoms: _239  and  _240
REMARK   99  A    between atoms: _242  and  _244
REMARK  100  A    between atoms: _244  and  _245
REMARK  101  A    between atoms: _244  and  _247
REMARK  102  A    between atoms: _247  and  _248
REMARK  103  A    between atoms: _248  and  _249
REMARK  104  A    between atoms: _254  and  _256
REMARK  105  A    between atoms: _256  and  _257
REMARK  106  A    between atoms: _256  and  _259
REMARK  107  A    between atoms: _259  and  _260
REMARK  108  A    between atoms: _262  and  _264
REMARK  109  A    between atoms: _264  and  _265
REMARK  110  A    between atoms: _267  and  _269
REMARK  111  A    between atoms: _269  and  _270
REMARK  112  A    between atoms: _269  and  _272
REMARK  113  A    between atoms: _272  and  _273
REMARK  114  A    between atoms: _276  and  _278
REMARK  115  A    between atoms: _278  and  _279
REMARK  116  A    between atoms: _278  and  _281
REMARK  117  A    between atoms: _281  and  _282
REMARK  118  A    between atoms: _287  and  _289
REMARK  119  A    between atoms: _289  and  _290
REMARK  120  A    between atoms: _289  and  _292
REMARK  121  A    between atoms: _292  and  _293
REMARK  122  A    between atoms: _296  and  _298
REMARK  123  A    between atoms: _298  and  _299
REMARK  124  A    between atoms: _302  and  _304
REMARK  125  A    between atoms: _304  and  _305
REMARK  126  A    between atoms: _304  and  _307
REMARK  127  A    between atoms: _307  and  _308
REMARK  128  A    between atoms: _313  and  _314
REMARK  129  A    between atoms: _316  and  _318
REMARK  130  A    between atoms: _318  and  _319
REMARK  131  A    between atoms: _318  and  _321
REMARK  132  A    between atoms: _321  and  _322
REMARK  133  A    between atoms: _327  and  _328
REMARK  134  A    between atoms: _330  and  _332
REMARK  135  A    between atoms: _332  and  _333
REMARK  136  A    between atoms: _332  and  _335
REMARK  137  A    between atoms: _335  and  _336
REMARK  138  A    between atoms: _336  and  _337
REMARK  139  A    between atoms: _342  and  _344
REMARK  140  A    between atoms: _344  and  _345
REMARK  141  A    between atoms: _344  and  _347
REMARK  142  A    between atoms: _350  and  _352
REMARK  143  A    between atoms: _352  and  _353
REMARK  144  A    between atoms: _352  and  _355
REMARK  145  A    between atoms: _358  and  _360
REMARK  146  A    between atoms: _360  and  _361
REMARK  147  A    between atoms: _360  and  _363
REMARK  148  A    between atoms: _363  and  _364
REMARK  149  A    between atoms: _364  and  _365
REMARK  150  A    between atoms: _365  and  _366
REMARK  151  A    between atoms: _375  and  _377
REMARK  152  A    between atoms: _377  and  _378
REMARK  153  A    between atoms: _381  and  _383
REMARK  154  A    between atoms: _383  and  _384
REMARK  155  A    between atoms: _383  and  _386
REMARK  156  A    between atoms: _386  and  _387
REMARK  157  A    between atoms: _389  and  _391
REMARK  158  A    between atoms: _391  and  _392
REMARK  159  A    between atoms: _391  and  _394
REMARK  160  A    between atoms: _394  and  _395
REMARK  161  A    between atoms: _400  and  _402
REMARK  162  A    between atoms: _402  and  _403
REMARK  163  A    between atoms: _402  and  _405
REMARK  164  A    between atoms: _405  and  _406
REMARK  165  A    between atoms: _416  and  _418
REMARK  166  A    between atoms: _418  and  _419
REMARK  167  A    between atoms: _418  and  _421
REMARK  168  A    between atoms: _421  and  _422
REMARK  169  A    between atoms: _425  and  _427
REMARK  170  A    between atoms: _427  and  _428
REMARK  171  A    between atoms: _427  and  _430
REMARK  172  A    between atoms: _430  and  _431
REMARK  173  A    between atoms: _436  and  _437
REMARK  174  A    between atoms: _439  and  _441
REMARK  175  A    between atoms: _441  and  _442
REMARK  176  A    between atoms: _444  and  _446
REMARK  177  A    between atoms: _446  and  _447
REMARK  178  A    between atoms: _446  and  _449
REMARK  179  A    between atoms: _449  and  _450
REMARK  180  A    between atoms: _460  and  _462
REMARK  181  A    between atoms: _462  and  _463
REMARK  182  A    between atoms: _462  and  _465
REMARK  183  A    between atoms: _465  and  _466
REMARK  184  A    between atoms: _468  and  _470
REMARK  185  A    between atoms: _470  and  _471
REMARK  186  A    between atoms: _473  and  _475
REMARK  187  A    between atoms: _475  and  _476
REMARK  188  A    between atoms: _475  and  _478
REMARK  189  A    between atoms: _478  and  _479
REMARK  190  A    between atoms: _482  and  _484
REMARK  191  A    between atoms: _484  and  _485
REMARK  192  A    between atoms: _484  and  _487
REMARK  193  A    between atoms: _487  and  _488
REMARK  194  A    between atoms: _493  and  _495
REMARK  195  A    between atoms: _495  and  _496
REMARK  196  A    between atoms: _495  and  _498
REMARK  197  A    between atoms: _498  and  _499
REMARK  198  A    between atoms: _504  and  _506
REMARK  199  A    between atoms: _506  and  _507
REMARK  200  A    between atoms: _506  and  _509
REMARK  201  A    between atoms: _509  and  _510
REMARK  202  A    between atoms: _517  and  _518
REMARK  203  A    between atoms: _523  and  _525
REMARK  204  A    between atoms: _525  and  _526
REMARK  205  A    between atoms: _525  and  _528
REMARK  206  A    between atoms: _528  and  _529
REMARK  207  A    between atoms: _532  and  _534
REMARK  208  A    between atoms: _534  and  _535
REMARK  209  A    between atoms: _534  and  _537
REMARK  210  A    between atoms: _537  and  _538
REMARK  211  A    between atoms: _540  and  _542
REMARK  212  A    between atoms: _542  and  _543
REMARK  213  A    between atoms: _542  and  _545
REMARK  214  A    between atoms: _545  and  _546
REMARK  215  A    between atoms: _551  and  _552
REMARK  216  A    between atoms: _554  and  _556
REMARK  217  A    between atoms: _556  and  _557
REMARK  218  A    between atoms: _556  and  _559
REMARK  219  A    between atoms: _559  and  _560
REMARK  220  A    between atoms: _562  and  _564
REMARK  221  A    between atoms: _564  and  _565
REMARK  222  A    between atoms: _564  and  _567
REMARK  223  A    between atoms: _567  and  _568
REMARK  224  A    between atoms: _571  and  _573
REMARK  225  A    between atoms: _573  and  _574
REMARK  226  A    between atoms: _573  and  _576
REMARK  227  A    between atoms: _576  and  _577
REMARK  228  A    between atoms: _582  and  _584
REMARK  229  A    between atoms: _584  and  _585
REMARK  230  A    between atoms: _584  and  _587
REMARK  231  A    between atoms: _587  and  _588
REMARK  232  A    between atoms: _594  and  _596
REMARK  233  A    between atoms: _596  and  _597
REMARK  234  A    between atoms: _601  and  _602
REMARK  235  A    between atoms: _607  and  _609
REMARK  236  A    between atoms: _609  and  _610
REMARK  237  A    between atoms: _609  and  _612
REMARK  238  A    between atoms: _612  and  _613
REMARK  239  A    between atoms: _618  and  _619
REMARK  240  A    between atoms: _621  and  _623
REMARK  241  A    between atoms: _623  and  _624
REMARK  242  A    between atoms: _623  and  _626
REMARK  243  A    between atoms: _626  and  _627
REMARK  244  A    between atoms: _627  and  _628
REMARK  245  A    between atoms: _628  and  _629
REMARK  246  A    between atoms: _629  and  _630
REMARK  247  A    between atoms: _634  and  _636
REMARK  248  A    between atoms: _636  and  _637
REMARK  249  A    between atoms: _636  and  _639
REMARK  250  A    between atoms: _639  and  _640
REMARK  251  A    between atoms: _640  and  _641
REMARK  252  A    between atoms: _646  and  _648
REMARK  253  A    between atoms: _648  and  _649
REMARK  254  A    between atoms: _648  and  _651
REMARK  255  A    between atoms: _651  and  _652
REMARK  256  A    between atoms: _655  and  _656
REMARK  257  A    between atoms: _661  and  _663
REMARK  258  A    between atoms: _663  and  _664
REMARK  259  A    between atoms: _663  and  _666
REMARK  260  A    between atoms: _666  and  _667
REMARK  261  A    between atoms: _673  and  _675
REMARK  262  A    between atoms: _675  and  _676
REMARK  263  A    between atoms: _678  and  _680
REMARK  264  A    between atoms: _680  and  _681
REMARK  265  A    between atoms: _680  and  _683
REMARK  266  A    between atoms: _683  and  _684
REMARK  267  A    between atoms: _689  and  _690
REMARK  268  A    between atoms: _692  and  _694
REMARK  269  A    between atoms: _694  and  _695
REMARK  270  A    between atoms: _694  and  _697
REMARK  271  A    between atoms: _697  and  _698
REMARK  272  A    between atoms: _701  and  _703
REMARK  273  A    between atoms: _703  and  _704
REMARK  274  A    between atoms: _703  and  _706
REMARK  275  A    between atoms: _706  and  _707
REMARK  276  A    between atoms: _712  and  _713
REMARK                            x       y       z     vdW  Elec       q    Type
REMARK                         _______ _______ _______ _____ _____    ______ ____
ROOT
ATOM      1  O   HOH     1      16.564 -27.336 -11.899  0.00  0.00    +0.000 OA
ENDROOT
TORSDOF 0
REMARK  Name = ../refined-set-2016/3m8u/3m8u_pocket.pdb
REMARK  276 active torsions:
REMARK  status: ('A' for Active; 'I' for Inactive)
REMARK    1  A    between atoms: _1  and  _3
REMARK    2  A    between atoms: _3  and  _4
REMARK    3  A    between atoms: _3  and  _6
REMARK    4  A    between atoms: _6  and  _7
REMARK    5  A    between atoms: _12  and  _14
REMARK    6  A    between atoms: _14  and  _15
REMARK    7  A    between atoms: _14  and  _17
REMARK    8  A    between atoms: _20  and  _22
REMARK    9  A    between atoms: _22  and  _23
REMARK   10  A    between atoms: _22  and  _25
REMARK   11  A    between atoms: _25  and  _26
REMARK   12  A    between atoms: _28  and  _30
REMARK   13  A    between atoms: _30  and  _31
REMARK   14  A    between atoms: _30  and  _33
REMARK   15  A    between atoms: _33  and  _34
REMARK   16  A    between atoms: _34  and  _35
REMARK   17  A    between atoms: _35  and  _36
REMARK   18  A    between atoms: _45  and  _47
REMARK   19  A    between atoms: _47  and  _48
REMARK   20  A    between atoms: _47  and  _50
REMARK   21  A    between atoms: _50  and  _51
REMARK   22  A    between atoms: _54  and  _56
REMARK   23  A    between atoms: _56  and  _57
REMARK   24  A    between atoms: _56  and  _59
REMARK   25  A    between atoms: _62  and  _64
REMARK   26  A    between atoms: _64  and  _65
REMARK   27  A    between atoms: _64  and  _67
REMARK   28  A    between atoms: _67  and  _68
REMARK   29  A    between atoms: _68  and  _69
REMARK   30  A    between atoms: _71  and  _73
REMARK   31  A    between atoms: _73  and  _74
REMARK   32  A    between atoms: _73  and  _76
REMARK   33  A    between atoms: _76  and  _77
REMARK   34  A    between atoms: _80  and  _82
REMARK   35  A    between atoms: _82  and  _83
REMARK   36  A    between atoms: _85  and  _87
REMARK   37  A    between atoms: _87  and  _88
REMARK   38  A    between atoms: _87  and  _90
REMARK   39  A    between atoms: _90  and  _91
REMARK   40  A    between atoms: _94  and  _96
REMARK   41  A    between atoms: _96  and  _97
REMARK   42  A    between atoms: _96  and  _99
REMARK   43  A    between atoms: _99  and  _100
REMARK   44  A    between atoms: _102  and  _104
REMARK   45  A    between atoms: _104  and  _105
REMARK   46  A    between atoms: _104  and  _107
REMARK   47  A    between atoms: _107  and  _108
REMARK   48  A    between atoms: _113  and  _114
REMARK   49  A    between atoms: _116  and  _118
REMARK   50  A    between atoms: _118  and  _119
REMARK   51  A    between atoms: _118  and  _121
REMARK   52  A    between atoms: _121  and  _122
REMARK   53  A    between atoms: _127  and  _129
REMARK   54  A    between atoms: _129  and  _130
REMARK   55  A    between atoms: _133  and  _135
REMARK   56  A    between atoms: _135  and  _136
REMARK   57  A    between atoms: _135  and  _138
REMARK   58  A    between atoms: _138  and  _139
REMARK   59  A    between atoms: _139  and  _140
REMARK   60  A    between atoms: _145  and  _147
REMARK   61  A    between atoms: _147  and  _148
REMARK   62  A    between atoms: _147  and  _150
REMARK   63  A    between atoms: _150  and  _151
REMARK   64  A    between atoms: _156  and  _157
REMARK   65  A    between atoms: _159  and  _161
REMARK   66  A    between atoms: _161  and  _162
REMARK   67  A    between atoms: _161  and  _164
REMARK   68  A    between atoms: _164  and  _165
REMARK   69  A    between atoms: _165  and  _166
REMARK   70  A    between atoms: _168  and  _170
REMARK   71  A    between atoms: _170  and  _171
REMARK   72  A    between atoms: _170  and  _173
REMARK   73  A    between atoms: _173  and  _174
REMARK   74  A    between atoms: _177  and  _179
REMARK   75  A    between atoms: _179  and  _180
REMARK   76  A    between atoms: _179  and  _182
REMARK   77  A    between atoms: _182  and  _183
REMARK   78  A    between atoms: _186  and  _188
REMARK   79  A    between atoms: _188  and  _189
REMARK   80  A    between atoms: _188  and  _191
REMARK   81  A    between atoms: _191  and  _192
REMARK   82  A    between atoms: _195  and  _197
REMARK   83  A    between atoms: _197  and  _198
REMARK   84  A    between atoms: _197  and  _200
REMARK   85  A    between atoms: _200  and  _201
REMARK   86  A    between atoms: _204  and  _206
REMARK   87  A    between atoms: _206  and  _207
REMARK   88  A    between atoms: _206  and  _209
REMARK   89  A    between atoms: _209  and  _210
REMARK   90  A    between atoms: _217  and  _218
REMARK   91  A    between atoms: _223  and  _225
REMARK   92  A    between atoms: _225  and  _226
REMARK   93  A    between atoms: _225  and  _228
REMARK   94  A    between atoms: _228  and  _229
REMARK   95  A    between atoms: _234  and  _236
REMARK   96  A    between atoms: _236  and  _237
REMARK   97  A    between atoms: _236  and  _239
REMARK   98  A    between atoms: _239  and  _240
REMARK   99  A    between atoms: _242  and  _244
REMARK  100  A    between atoms: _244  and  _245
REMARK  101  A    between atoms: _244  and  _247
REMARK  102  A    between atoms: _247  and  _248
REMARK  103  A    between atoms: _248  and  _249
REMARK  104  A    between atoms: _254  and  _256
REMARK  105  A    between atoms: _256  and  _257
REMARK  106  A    between atoms: _256  and  _259
REMARK  107  A    between atoms: _259  and  _260
REMARK  108  A    between atoms: _262  and  _264
REMARK  109  A    between atoms: _264  and  _265
REMARK  110  A    between atoms: _267  and  _269
REMARK  111  A    between atoms: _269  and  _270
REMARK  112  A    between atoms: _269  and  _272
REMARK  113  A    between atoms: _272  and  _273
REMARK  114  A    between atoms: _276  and  _278
REMARK  115  A    between atoms: _278  and  _279
REMARK  116  A    between atoms: _278  and  _281
REMARK  117  A    between atoms: _281  and  _282
REMARK  118  A    between atoms: _287  and  _289
REMARK  119  A    between atoms: _289  and  _290
REMARK  120  A    between atoms: _289  and  _292
REMARK  121  A    between atoms: _292  and  _293
REMARK  122  A    between atoms: _296  and  _298
REMARK  123  A    between atoms: _298  and  _299
REMARK  124  A    between atoms: _302  and  _304
REMARK  125  A    between atoms: _304  and  _305
REMARK  126  A    between atoms: _304  and  _307
REMARK  127  A    between atoms: _307  and  _308
REMARK  128  A    between atoms: _313  and  _314
REMARK  129  A    between atoms: _316  and  _318
REMARK  130  A    between atoms: _318  and  _319
REMARK  131  A    between atoms: _318  and  _321
REMARK  132  A    between atoms: _321  and  _322
REMARK  133  A    between atoms: _327  and  _328
REMARK  134  A    between atoms: _330  and  _332
REMARK  135  A    between atoms: _332  and  _333
REMARK  136  A    between atoms: _332  and  _335
REMARK  137  A    between atoms: _335  and  _336
REMARK  138  A    between atoms: _336  and  _337
REMARK  139  A    between atoms: _342  and  _344
REMARK  140  A    between atoms: _344  and  _345
REMARK  141  A    between atoms: _344  and  _347
REMARK  142  A    between atoms: _350  and  _352
REMARK  143  A    between atoms: _352  and  _353
REMARK  144  A    between atoms: _352  and  _355
REMARK  145  A    between atoms: _358  and  _360
REMARK  146  A    between atoms: _360  and  _361
REMARK  147  A    between atoms: _360  and  _363
REMARK  148  A    between atoms: _363  and  _364
REMARK  149  A    between atoms: _364  and  _365
REMARK  150  A    between atoms: _365  and  _366
REMARK  151  A    between atoms: _375  and  _377
REMARK  152  A    between atoms: _377  and  _378
REMARK  153  A    between atoms: _381  and  _383
REMARK  154  A    between atoms: _383  and  _384
REMARK  155  A    between atoms: _383  and  _386
REMARK  156  A    between atoms: _386  and  _387
REMARK  157  A    between atoms: _389  and  _391
REMARK  158  A    between atoms: _391  and  _392
REMARK  159  A    between atoms: _391  and  _394
REMARK  160  A    between atoms: _394  and  _395
REMARK  161  A    between atoms: _400  and  _402
REMARK  162  A    between atoms: _402  and  _403
REMARK  163  A    between atoms: _402  and  _405
REMARK  164  A    between atoms: _405  and  _406
REMARK  165  A    between atoms: _416  and  _418
REMARK  166  A    between atoms: _418  and  _419
REMARK  167  A    between atoms: _418  and  _421
REMARK  168  A    between atoms: _421  and  _422
REMARK  169  A    between atoms: _425  and  _427
REMARK  170  A    between atoms: _427  and  _428
REMARK  171  A    between atoms: _427  and  _430
REMARK  172  A    between atoms: _430  and  _431
REMARK  173  A    between atoms: _436  and  _437
REMARK  174  A    between atoms: _439  and  _441
REMARK  175  A    between atoms: _441  and  _442
REMARK  176  A    between atoms: _444  and  _446
REMARK  177  A    between atoms: _446  and  _447
REMARK  178  A    between atoms: _446  and  _449
REMARK  179  A    between atoms: _449  and  _450
REMARK  180  A    between atoms: _460  and  _462
REMARK  181  A    between atoms: _462  and  _463
REMARK  182  A    between atoms: _462  and  _465
REMARK  183  A    between atoms: _465  and  _466
REMARK  184  A    between atoms: _468  and  _470
REMARK  185  A    between atoms: _470  and  _471
REMARK  186  A    between atoms: _473  and  _475
REMARK  187  A    between atoms: _475  and  _476
REMARK  188  A    between atoms: _475  and  _478
REMARK  189  A    between atoms: _478  and  _479
REMARK  190  A    between atoms: _482  and  _484
REMARK  191  A    between atoms: _484  and  _485
REMARK  192  A    between atoms: _484  and  _487
REMARK  193  A    between atoms: _487  and  _488
REMARK  194  A    between atoms: _493  and  _495
REMARK  195  A    between atoms: _495  and  _496
REMARK  196  A    between atoms: _495  and  _498
REMARK  197  A    between atoms: _498  and  _499
REMARK  198  A    between atoms: _504  and  _506
REMARK  199  A    between atoms: _506  and  _507
REMARK  200  A    between atoms: _506  and  _509
REMARK  201  A    between atoms: _509  and  _510
REMARK  202  A    between atoms: _517  and  _518
REMARK  203  A    between atoms: _523  and  _525
REMARK  204  A    between atoms: _525  and  _526
REMARK  205  A    between atoms: _525  and  _528
REMARK  206  A    between atoms: _528  and  _529
REMARK  207  A    between atoms: _532  and  _534
REMARK  208  A    between atoms: _534  and  _535
REMARK  209  A    between atoms: _534  and  _537
REMARK  210  A    between atoms: _537  and  _538
REMARK  211  A    between atoms: _540  and  _542
REMARK  212  A    between atoms: _542  and  _543
REMARK  213  A    between atoms: _542  and  _545
REMARK  214  A    between atoms: _545  and  _546
REMARK  215  A    between atoms: _551  and  _552
REMARK  216  A    between atoms: _554  and  _556
REMARK  217  A    between atoms: _556  and  _557
REMARK  218  A    between atoms: _556  and  _559
REMARK  219  A    between atoms: _559  and  _560
REMARK  220  A    between atoms: _562  and  _564
REMARK  221  A    between atoms: _564  and  _565
REMARK  222  A    between atoms: _564  and  _567
REMARK  223  A    between atoms: _567  and  _568
REMARK  224  A    between atoms: _571  and  _573
REMARK  225  A    between atoms: _573  and  _574
REMARK  226  A    between atoms: _573  and  _576
REMARK  227  A    between atoms: _576  and  _577
REMARK  228  A    between atoms: _582  and  _584
REMARK  229  A    between atoms: _584  and  _585
REMARK  230  A    between atoms: _584  and  _587
REMARK  231  A    between atoms: _587  and  _588
REMARK  232  A    between atoms: _594  and  _596
REMARK  233  A    between atoms: _596  and  _597
REMARK  234  A    between atoms: _601  and  _602
REMARK  235  A    between atoms: _607  and  _609
REMARK  236  A    between atoms: _609  and  _610
REMARK  237  A    between atoms: _609  and  _612
REMARK  238  A    between atoms: _612  and  _613
REMARK  239  A    between atoms: _618  and  _619
REMARK  240  A    between atoms: _621  and  _623
REMARK  241  A    between atoms: _623  and  _624
REMARK  242  A    between atoms: _623  and  _626
REMARK  243  A    between atoms: _626  and  _627
REMARK  244  A    between atoms: _627  and  _628
REMARK  245  A    between atoms: _628  and  _629
REMARK  246  A    between atoms: _629  and  _630
REMARK  247  A    between atoms: _634  and  _636
REMARK  248  A    between atoms: _636  and  _637
REMARK  249  A    between atoms: _636  and  _639
REMARK  250  A    between atoms: _639  and  _640
REMARK  251  A    between atoms: _640  and  _641
REMARK  252  A    between atoms: _646  and  _648
REMARK  253  A    between atoms: _648  and  _649
REMARK  254  A    between atoms: _648  and  _651
REMARK  255  A    between atoms: _651  and  _652
REMARK  256  A    between atoms: _655  and  _656
REMARK  257  A    between atoms: _661  and  _663
REMARK  258  A    between atoms: _663  and  _664
REMARK  259  A    between atoms: _663  and  _666
REMARK  260  A    between atoms: _666  and  _667
REMARK  261  A    between atoms: _673  and  _675
REMARK  262  A    between atoms: _675  and  _676
REMARK  263  A    between atoms: _678  and  _680
REMARK  264  A    between atoms: _680  and  _681
REMARK  265  A    between atoms: _680  and  _683
REMARK  266  A    between atoms: _683  and  _684
REMARK  267  A    between atoms: _689  and  _690
REMARK  268  A    between atoms: _692  and  _694
REMARK  269  A    between atoms: _694  and  _695
REMARK  270  A    between atoms: _694  and  _697
REMARK  271  A    between atoms: _697  and  _698
REMARK  272  A    between atoms: _701  and  _703
REMARK  273  A    between atoms: _703  and  _704
REMARK  274  A    between atoms: _703  and  _706
REMARK  275  A    between atoms: _706  and  _707
REMARK  276  A    between atoms: _712  and  _713
REMARK                            x       y       z     vdW  Elec       q    Type
REMARK                         _______ _______ _______ _____ _____    ______ ____
ROOT
ATOM      1  O   HOH     1       9.975 -17.746 -12.261  0.00  0.00    +0.000 OA
ENDROOT
TORSDOF 0
REMARK  Name = ../refined-set-2016/3m8u/3m8u_pocket.pdb
REMARK  276 active torsions:
REMARK  status: ('A' for Active; 'I' for Inactive)
REMARK    1  A    between atoms: _1  and  _3
REMARK    2  A    between atoms: _3  and  _4
REMARK    3  A    between atoms: _3  and  _6
REMARK    4  A    between atoms: _6  and  _7
REMARK    5  A    between atoms: _12  and  _14
REMARK    6  A    between atoms: _14  and  _15
REMARK    7  A    between atoms: _14  and  _17
REMARK    8  A    between atoms: _20  and  _22
REMARK    9  A    between atoms: _22  and  _23
REMARK   10  A    between atoms: _22  and  _25
REMARK   11  A    between atoms: _25  and  _26
REMARK   12  A    between atoms: _28  and  _30
REMARK   13  A    between atoms: _30  and  _31
REMARK   14  A    between atoms: _30  and  _33
REMARK   15  A    between atoms: _33  and  _34
REMARK   16  A    between atoms: _34  and  _35
REMARK   17  A    between atoms: _35  and  _36
REMARK   18  A    between atoms: _45  and  _47
REMARK   19  A    between atoms: _47  and  _48
REMARK   20  A    between atoms: _47  and  _50
REMARK   21  A    between atoms: _50  and  _51
REMARK   22  A    between atoms: _54  and  _56
REMARK   23  A    between atoms: _56  and  _57
REMARK   24  A    between atoms: _56  and  _59
REMARK   25  A    between atoms: _62  and  _64
REMARK   26  A    between atoms: _64  and  _65
REMARK   27  A    between atoms: _64  and  _67
REMARK   28  A    between atoms: _67  and  _68
REMARK   29  A    between atoms: _68  and  _69
REMARK   30  A    between atoms: _71  and  _73
REMARK   31  A    between atoms: _73  and  _74
REMARK   32  A    between atoms: _73  and  _76
REMARK   33  A    between atoms: _76  and  _77
REMARK   34  A    between atoms: _80  and  _82
REMARK   35  A    between atoms: _82  and  _83
REMARK   36  A    between atoms: _85  and  _87
REMARK   37  A    between atoms: _87  and  _88
REMARK   38  A    between atoms: _87  and  _90
REMARK   39  A    between atoms: _90  and  _91
REMARK   40  A    between atoms: _94  and  _96
REMARK   41  A    between atoms: _96  and  _97
REMARK   42  A    between atoms: _96  and  _99
REMARK   43  A    between atoms: _99  and  _100
REMARK   44  A    between atoms: _102  and  _104
REMARK   45  A    between atoms: _104  and  _105
REMARK   46  A    between atoms: _104  and  _107
REMARK   47  A    between atoms: _107  and  _108
REMARK   48  A    between atoms: _113  and  _114
REMARK   49  A    between atoms: _116  and  _118
REMARK   50  A    between atoms: _118  and  _119
REMARK   51  A    between atoms: _118  and  _121
REMARK   52  A    between atoms: _121  and  _122
REMARK   53  A    between atoms: _127  and  _129
REMARK   54  A    between atoms: _129  and  _130
REMARK   55  A    between atoms: _133  and  _135
REMARK   56  A    between atoms: _135  and  _136
REMARK   57  A    between atoms: _135  and  _138
REMARK   58  A    between atoms: _138  and  _139
REMARK   59  A    between atoms: _139  and  _140
REMARK   60  A    between atoms: _145  and  _147
REMARK   61  A    between atoms: _147  and  _148
REMARK   62  A    between atoms: _147  and  _150
REMARK   63  A    between atoms: _150  and  _151
REMARK   64  A    between atoms: _156  and  _157
REMARK   65  A    between atoms: _159  and  _161
REMARK   66  A    between atoms: _161  and  _162
REMARK   67  A    between atoms: _161  and  _164
REMARK   68  A    between atoms: _164  and  _165
REMARK   69  A    between atoms: _165  and  _166
REMARK   70  A    between atoms: _168  and  _170
REMARK   71  A    between atoms: _170  and  _171
REMARK   72  A    between atoms: _170  and  _173
REMARK   73  A    between atoms: _173  and  _174
REMARK   74  A    between atoms: _177  and  _179
REMARK   75  A    between atoms: _179  and  _180
REMARK   76  A    between atoms: _179  and  _182
REMARK   77  A    between atoms: _182  and  _183
REMARK   78  A    between atoms: _186  and  _188
REMARK   79  A    between atoms: _188  and  _189
REMARK   80  A    between atoms: _188  and  _191
REMARK   81  A    between atoms: _191  and  _192
REMARK   82  A    between atoms: _195  and  _197
REMARK   83  A    between atoms: _197  and  _198
REMARK   84  A    between atoms: _197  and  _200
REMARK   85  A    between atoms: _200  and  _201
REMARK   86  A    between atoms: _204  and  _206
REMARK   87  A    between atoms: _206  and  _207
REMARK   88  A    between atoms: _206  and  _209
REMARK   89  A    between atoms: _209  and  _210
REMARK   90  A    between atoms: _217  and  _218
REMARK   91  A    between atoms: _223  and  _225
REMARK   92  A    between atoms: _225  and  _226
REMARK   93  A    between atoms: _225  and  _228
REMARK   94  A    between atoms: _228  and  _229
REMARK   95  A    between atoms: _234  and  _236
REMARK   96  A    between atoms: _236  and  _237
REMARK   97  A    between atoms: _236  and  _239
REMARK   98  A    between atoms: _239  and  _240
REMARK   99  A    between atoms: _242  and  _244
REMARK  100  A    between atoms: _244  and  _245
REMARK  101  A    between atoms: _244  and  _247
REMARK  102  A    between atoms: _247  and  _248
REMARK  103  A    between atoms: _248  and  _249
REMARK  104  A    between atoms: _254  and  _256
REMARK  105  A    between atoms: _256  and  _257
REMARK  106  A    between atoms: _256  and  _259
REMARK  107  A    between atoms: _259  and  _260
REMARK  108  A    between atoms: _262  and  _264
REMARK  109  A    between atoms: _264  and  _265
REMARK  110  A    between atoms: _267  and  _269
REMARK  111  A    between atoms: _269  and  _270
REMARK  112  A    between atoms: _269  and  _272
REMARK  113  A    between atoms: _272  and  _273
REMARK  114  A    between atoms: _276  and  _278
REMARK  115  A    between atoms: _278  and  _279
REMARK  116  A    between atoms: _278  and  _281
REMARK  117  A    between atoms: _281  and  _282
REMARK  118  A    between atoms: _287  and  _289
REMARK  119  A    between atoms: _289  and  _290
REMARK  120  A    between atoms: _289  and  _292
REMARK  121  A    between atoms: _292  and  _293
REMARK  122  A    between atoms: _296  and  _298
REMARK  123  A    between atoms: _298  and  _299
REMARK  124  A    between atoms: _302  and  _304
REMARK  125  A    between atoms: _304  and  _305
REMARK  126  A    between atoms: _304  and  _307
REMARK  127  A    between atoms: _307  and  _308
REMARK  128  A    between atoms: _313  and  _314
REMARK  129  A    between atoms: _316  and  _318
REMARK  130  A    between atoms: _318  and  _319
REMARK  131  A    between atoms: _318  and  _321
REMARK  132  A    between atoms: _321  and  _322
REMARK  133  A    between atoms: _327  and  _328
REMARK  134  A    between atoms: _330  and  _332
REMARK  135  A    between atoms: _332  and  _333
REMARK  136  A    between atoms: _332  and  _335
REMARK  137  A    between atoms: _335  and  _336
REMARK  138  A    between atoms: _336  and  _337
REMARK  139  A    between atoms: _342  and  _344
REMARK  140  A    between atoms: _344  and  _345
REMARK  141  A    between atoms: _344  and  _347
REMARK  142  A    between atoms: _350  and  _352
REMARK  143  A    between atoms: _352  and  _353
REMARK  144  A    between atoms: _352  and  _355
REMARK  145  A    between atoms: _358  and  _360
REMARK  146  A    between atoms: _360  and  _361
REMARK  147  A    between atoms: _360  and  _363
REMARK  148  A    between atoms: _363  and  _364
REMARK  149  A    between atoms: _364  and  _365
REMARK  150  A    between atoms: _365  and  _366
REMARK  151  A    between atoms: _375  and  _377
REMARK  152  A    between atoms: _377  and  _378
REMARK  153  A    between atoms: _381  and  _383
REMARK  154  A    between atoms: _383  and  _384
REMARK  155  A    between atoms: _383  and  _386
REMARK  156  A    between atoms: _386  and  _387
REMARK  157  A    between atoms: _389  and  _391
REMARK  158  A    between atoms: _391  and  _392
REMARK  159  A    between atoms: _391  and  _394
REMARK  160  A    between atoms: _394  and  _395
REMARK  161  A    between atoms: _400  and  _402
REMARK  162  A    between atoms: _402  and  _403
REMARK  163  A    between atoms: _402  and  _405
REMARK  164  A    between atoms: _405  and  _406
REMARK  165  A    between atoms: _416  and  _418
REMARK  166  A    between atoms: _418  and  _419
REMARK  167  A    between atoms: _418  and  _421
REMARK  168  A    between atoms: _421  and  _422
REMARK  169  A    between atoms: _425  and  _427
REMARK  170  A    between atoms: _427  and  _428
REMARK  171  A    between atoms: _427  and  _430
REMARK  172  A    between atoms: _430  and  _431
REMARK  173  A    between atoms: _436  and  _437
REMARK  174  A    between atoms: _439  and  _441
REMARK  175  A    between atoms: _441  and  _442
REMARK  176  A    between atoms: _444  and  _446
REMARK  177  A    between atoms: _446  and  _447
REMARK  178  A    between atoms: _446  and  _449
REMARK  179  A    between atoms: _449  and  _450
REMARK  180  A    between atoms: _460  and  _462
REMARK  181  A    between atoms: _462  and  _463
REMARK  182  A    between atoms: _462  and  _465
REMARK  183  A    between atoms: _465  and  _466
REMARK  184  A    between atoms: _468  and  _470
REMARK  185  A    between atoms: _470  and  _471
REMARK  186  A    between atoms: _473  and  _475
REMARK  187  A    between atoms: _475  and  _476
REMARK  188  A    between atoms: _475  and  _478
REMARK  189  A    between atoms: _478  and  _479
REMARK  190  A    between atoms: _482  and  _484
REMARK  191  A    between atoms: _484  and  _485
REMARK  192  A    between atoms: _484  and  _487
REMARK  193  A    between atoms: _487  and  _488
REMARK  194  A    between atoms: _493  and  _495
REMARK  195  A    between atoms: _495  and  _496
REMARK  196  A    between atoms: _495  and  _498
REMARK  197  A    between atoms: _498  and  _499
REMARK  198  A    between atoms: _504  and  _506
REMARK  199  A    between atoms: _506  and  _507
REMARK  200  A    between atoms: _506  and  _509
REMARK  201  A    between atoms: _509  and  _510
REMARK  202  A    between atoms: _517  and  _518
REMARK  203  A    between atoms: _523  and  _525
REMARK  204  A    between atoms: _525  and  _526
REMARK  205  A    between atoms: _525  and  _528
REMARK  206  A    between atoms: _528  and  _529
REMARK  207  A    between atoms: _532  and  _534
REMARK  208  A    between atoms: _534  and  _535
REMARK  209  A    between atoms: _534  and  _537
REMARK  210  A    between atoms: _537  and  _538
REMARK  211  A    between atoms: _540  and  _542
REMARK  212  A    between atoms: _542  and  _543
REMARK  213  A    between atoms: _542  and  _545
REMARK  214  A    between atoms: _545  and  _546
REMARK  215  A    between atoms: _551  and  _552
REMARK  216  A    between atoms: _554  and  _556
REMARK  217  A    between atoms: _556  and  _557
REMARK  218  A    between atoms: _556  and  _559
REMARK  219  A    between atoms: _559  and  _560
REMARK  220  A    between atoms: _562  and  _564
REMARK  221  A    between atoms: _564  and  _565
REMARK  222  A    between atoms: _564  and  _567
REMARK  223  A    between atoms: _567  and  _568
REMARK  224  A    between atoms: _571  and  _573
REMARK  225  A    between atoms: _573  and  _574
REMARK  226  A    between atoms: _573  and  _576
REMARK  227  A    between atoms: _576  and  _577
REMARK  228  A    between atoms: _582  and  _584
REMARK  229  A    between atoms: _584  and  _585
REMARK  230  A    between atoms: _584  and  _587
REMARK  231  A    between atoms: _587  and  _588
REMARK  232  A    between atoms: _594  and  _596
REMARK  233  A    between atoms: _596  and  _597
REMARK  234  A    between atoms: _601  and  _602
REMARK  235  A    between atoms: _607  and  _609
REMARK  236  A    between atoms: _609  and  _610
REMARK  237  A    between atoms: _609  and  _612
REMARK  238  A    between atoms: _612  and  _613
REMARK  239  A    between atoms: _618  and  _619
REMARK  240  A    between atoms: _621  and  _623
REMARK  241  A    between atoms: _623  and  _624
REMARK  242  A    between atoms: _623  and  _626
REMARK  243  A    between atoms: _626  and  _627
REMARK  244  A    between atoms: _627  and  _628
REMARK  245  A    between atoms: _628  and  _629
REMARK  246  A    between atoms: _629  and  _630
REMARK  247  A    between atoms: _634  and  _636
REMARK  248  A    between atoms: _636  and  _637
REMARK  249  A    between atoms: _636  and  _639
REMARK  250  A    between atoms: _639  and  _640
REMARK  251  A    between atoms: _640  and  _641
REMARK  252  A    between atoms: _646  and  _648
REMARK  253  A    between atoms: _648  and  _649
REMARK  254  A    between atoms: _648  and  _651
REMARK  255  A    between atoms: _651  and  _652
REMARK  256  A    between atoms: _655  and  _656
REMARK  257  A    between atoms: _661  and  _663
REMARK  258  A    between atoms: _663  and  _664
REMARK  259  A    between atoms: _663  and  _666
REMARK  260  A    between atoms: _666  and  _667
REMARK  261  A    between atoms: _673  and  _675
REMARK  262  A    between atoms: _675  and  _676
REMARK  263  A    between atoms: _678  and  _680
REMARK  264  A    between atoms: _680  and  _681
REMARK  265  A    between atoms: _680  and  _683
REMARK  266  A    between atoms: _683  and  _684
REMARK  267  A    between atoms: _689  and  _690
REMARK  268  A    between atoms: _692  and  _694
REMARK  269  A    between atoms: _694  and  _695
REMARK  270  A    between atoms: _694  and  _697
REMARK  271  A    between atoms: _697  and  _698
REMARK  272  A    between atoms: _701  and  _703
REMARK  273  A    between atoms: _703  and  _704
REMARK  274  A    between atoms: _703  and  _706
REMARK  275  A    between atoms: _706  and  _707
REMARK  276  A    between atoms: _712  and  _713
REMARK                            x       y       z     vdW  Elec       q    Type
REMARK                         _______ _______ _______ _____ _____    ______ ____
ROOT
ATOM      1  O   HOH     1      16.142 -23.957  -4.182  0.00  0.00    +0.000 OA
ENDROOT
TORSDOF 0
REMARK  Name = ../refined-set-2016/3m8u/3m8u_pocket.pdb
REMARK  276 active torsions:
REMARK  status: ('A' for Active; 'I' for Inactive)
REMARK    1  A    between atoms: _1  and  _3
REMARK    2  A    between atoms: _3  and  _4
REMARK    3  A    between atoms: _3  and  _6
REMARK    4  A    between atoms: _6  and  _7
REMARK    5  A    between atoms: _12  and  _14
REMARK    6  A    between atoms: _14  and  _15
REMARK    7  A    between atoms: _14  and  _17
REMARK    8  A    between atoms: _20  and  _22
REMARK    9  A    between atoms: _22  and  _23
REMARK   10  A    between atoms: _22  and  _25
REMARK   11  A    between atoms: _25  and  _26
REMARK   12  A    between atoms: _28  and  _30
REMARK   13  A    between atoms: _30  and  _31
REMARK   14  A    between atoms: _30  and  _33
REMARK   15  A    between atoms: _33  and  _34
REMARK   16  A    between atoms: _34  and  _35
REMARK   17  A    between atoms: _35  and  _36
REMARK   18  A    between atoms: _45  and  _47
REMARK   19  A    between atoms: _47  and  _48
REMARK   20  A    between atoms: _47  and  _50
REMARK   21  A    between atoms: _50  and  _51
REMARK   22  A    between atoms: _54  and  _56
REMARK   23  A    between atoms: _56  and  _57
REMARK   24  A    between atoms: _56  and  _59
REMARK   25  A    between atoms: _62  and  _64
REMARK   26  A    between atoms: _64  and  _65
REMARK   27  A    between atoms: _64  and  _67
REMARK   28  A    between atoms: _67  and  _68
REMARK   29  A    between atoms: _68  and  _69
REMARK   30  A    between atoms: _71  and  _73
REMARK   31  A    between atoms: _73  and  _74
REMARK   32  A    between atoms: _73  and  _76
REMARK   33  A    between atoms: _76  and  _77
REMARK   34  A    between atoms: _80  and  _82
REMARK   35  A    between atoms: _82  and  _83
REMARK   36  A    between atoms: _85  and  _87
REMARK   37  A    between atoms: _87  and  _88
REMARK   38  A    between atoms: _87  and  _90
REMARK   39  A    between atoms: _90  and  _91
REMARK   40  A    between atoms: _94  and  _96
REMARK   41  A    between atoms: _96  and  _97
REMARK   42  A    between atoms: _96  and  _99
REMARK   43  A    between atoms: _99  and  _100
REMARK   44  A    between atoms: _102  and  _104
REMARK   45  A    between atoms: _104  and  _105
REMARK   46  A    between atoms: _104  and  _107
REMARK   47  A    between atoms: _107  and  _108
REMARK   48  A    between atoms: _113  and  _114
REMARK   49  A    between atoms: _116  and  _118
REMARK   50  A    between atoms: _118  and  _119
REMARK   51  A    between atoms: _118  and  _121
REMARK   52  A    between atoms: _121  and  _122
REMARK   53  A    between atoms: _127  and  _129
REMARK   54  A    between atoms: _129  and  _130
REMARK   55  A    between atoms: _133  and  _135
REMARK   56  A    between atoms: _135  and  _136
REMARK   57  A    between atoms: _135  and  _138
REMARK   58  A    between atoms: _138  and  _139
REMARK   59  A    between atoms: _139  and  _140
REMARK   60  A    between atoms: _145  and  _147
REMARK   61  A    between atoms: _147  and  _148
REMARK   62  A    between atoms: _147  and  _150
REMARK   63  A    between atoms: _150  and  _151
REMARK   64  A    between atoms: _156  and  _157
REMARK   65  A    between atoms: _159  and  _161
REMARK   66  A    between atoms: _161  and  _162
REMARK   67  A    between atoms: _161  and  _164
REMARK   68  A    between atoms: _164  and  _165
REMARK   69  A    between atoms: _165  and  _166
REMARK   70  A    between atoms: _168  and  _170
REMARK   71  A    between atoms: _170  and  _171
REMARK   72  A    between atoms: _170  and  _173
REMARK   73  A    between atoms: _173  and  _174
REMARK   74  A    between atoms: _177  and  _179
REMARK   75  A    between atoms: _179  and  _180
REMARK   76  A    between atoms: _179  and  _182
REMARK   77  A    between atoms: _182  and  _183
REMARK   78  A    between atoms: _186  and  _188
REMARK   79  A    between atoms: _188  and  _189
REMARK   80  A    between atoms: _188  and  _191
REMARK   81  A    between atoms: _191  and  _192
REMARK   82  A    between atoms: _195  and  _197
REMARK   83  A    between atoms: _197  and  _198
REMARK   84  A    between atoms: _197  and  _200
REMARK   85  A    between atoms: _200  and  _201
REMARK   86  A    between atoms: _204  and  _206
REMARK   87  A    between atoms: _206  and  _207
REMARK   88  A    between atoms: _206  and  _209
REMARK   89  A    between atoms: _209  and  _210
REMARK   90  A    between atoms: _217  and  _218
REMARK   91  A    between atoms: _223  and  _225
REMARK   92  A    between atoms: _225  and  _226
REMARK   93  A    between atoms: _225  and  _228
REMARK   94  A    between atoms: _228  and  _229
REMARK   95  A    between atoms: _234  and  _236
REMARK   96  A    between atoms: _236  and  _237
REMARK   97  A    between atoms: _236  and  _239
REMARK   98  A    between atoms: _239  and  _240
REMARK   99  A    between atoms: _242  and  _244
REMARK  100  A    between atoms: _244  and  _245
REMARK  101  A    between atoms: _244  and  _247
REMARK  102  A    between atoms: _247  and  _248
REMARK  103  A    between atoms: _248  and  _249
REMARK  104  A    between atoms: _254  and  _256
REMARK  105  A    between atoms: _256  and  _257
REMARK  106  A    between atoms: _256  and  _259
REMARK  107  A    between atoms: _259  and  _260
REMARK  108  A    between atoms: _262  and  _264
REMARK  109  A    between atoms: _264  and  _265
REMARK  110  A    between atoms: _267  and  _269
REMARK  111  A    between atoms: _269  and  _270
REMARK  112  A    between atoms: _269  and  _272
REMARK  113  A    between atoms: _272  and  _273
REMARK  114  A    between atoms: _276  and  _278
REMARK  115  A    between atoms: _278  and  _279
REMARK  116  A    between atoms: _278  and  _281
REMARK  117  A    between atoms: _281  and  _282
REMARK  118  A    between atoms: _287  and  _289
REMARK  119  A    between atoms: _289  and  _290
REMARK  120  A    between atoms: _289  and  _292
REMARK  121  A    between atoms: _292  and  _293
REMARK  122  A    between atoms: _296  and  _298
REMARK  123  A    between atoms: _298  and  _299
REMARK  124  A    between atoms: _302  and  _304
REMARK  125  A    between atoms: _304  and  _305
REMARK  126  A    between atoms: _304  and  _307
REMARK  127  A    between atoms: _307  and  _308
REMARK  128  A    between atoms: _313  and  _314
REMARK  129  A    between atoms: _316  and  _318
REMARK  130  A    between atoms: _318  and  _319
REMARK  131  A    between atoms: _318  and  _321
REMARK  132  A    between atoms: _321  and  _322
REMARK  133  A    between atoms: _327  and  _328
REMARK  134  A    between atoms: _330  and  _332
REMARK  135  A    between atoms: _332  and  _333
REMARK  136  A    between atoms: _332  and  _335
REMARK  137  A    between atoms: _335  and  _336
REMARK  138  A    between atoms: _336  and  _337
REMARK  139  A    between atoms: _342  and  _344
REMARK  140  A    between atoms: _344  and  _345
REMARK  141  A    between atoms: _344  and  _347
REMARK  142  A    between atoms: _350  and  _352
REMARK  143  A    between atoms: _352  and  _353
REMARK  144  A    between atoms: _352  and  _355
REMARK  145  A    between atoms: _358  and  _360
REMARK  146  A    between atoms: _360  and  _361
REMARK  147  A    between atoms: _360  and  _363
REMARK  148  A    between atoms: _363  and  _364
REMARK  149  A    between atoms: _364  and  _365
REMARK  150  A    between atoms: _365  and  _366
REMARK  151  A    between atoms: _375  and  _377
REMARK  152  A    between atoms: _377  and  _378
REMARK  153  A    between atoms: _381  and  _383
REMARK  154  A    between atoms: _383  and  _384
REMARK  155  A    between atoms: _383  and  _386
REMARK  156  A    between atoms: _386  and  _387
REMARK  157  A    between atoms: _389  and  _391
REMARK  158  A    between atoms: _391  and  _392
REMARK  159  A    between atoms: _391  and  _394
REMARK  160  A    between atoms: _394  and  _395
REMARK  161  A    between atoms: _400  and  _402
REMARK  162  A    between atoms: _402  and  _403
REMARK  163  A    between atoms: _402  and  _405
REMARK  164  A    between atoms: _405  and  _406
REMARK  165  A    between atoms: _416  and  _418
REMARK  166  A    between atoms: _418  and  _419
REMARK  167  A    between atoms: _418  and  _421
REMARK  168  A    between atoms: _421  and  _422
REMARK  169  A    between atoms: _425  and  _427
REMARK  170  A    between atoms: _427  and  _428
REMARK  171  A    between atoms: _427  and  _430
REMARK  172  A    between atoms: _430  and  _431
REMARK  173  A    between atoms: _436  and  _437
REMARK  174  A    between atoms: _439  and  _441
REMARK  175  A    between atoms: _441  and  _442
REMARK  176  A    between atoms: _444  and  _446
REMARK  177  A    between atoms: _446  and  _447
REMARK  178  A    between atoms: _446  and  _449
REMARK  179  A    between atoms: _449  and  _450
REMARK  180  A    between atoms: _460  and  _462
REMARK  181  A    between atoms: _462  and  _463
REMARK  182  A    between atoms: _462  and  _465
REMARK  183  A    between atoms: _465  and  _466
REMARK  184  A    between atoms: _468  and  _470
REMARK  185  A    between atoms: _470  and  _471
REMARK  186  A    between atoms: _473  and  _475
REMARK  187  A    between atoms: _475  and  _476
REMARK  188  A    between atoms: _475  and  _478
REMARK  189  A    between atoms: _478  and  _479
REMARK  190  A    between atoms: _482  and  _484
REMARK  191  A    between atoms: _484  and  _485
REMARK  192  A    between atoms: _484  and  _487
REMARK  193  A    between atoms: _487  and  _488
REMARK  194  A    between atoms: _493  and  _495
REMARK  195  A    between atoms: _495  and  _496
REMARK  196  A    between atoms: _495  and  _498
REMARK  197  A    between atoms: _498  and  _499
REMARK  198  A    between atoms: _504  and  _506
REMARK  199  A    between atoms: _506  and  _507
REMARK  200  A    between atoms: _506  and  _509
REMARK  201  A    between atoms: _509  and  _510
REMARK  202  A    between atoms: _517  and  _518
REMARK  203  A    between atoms: _523  and  _525
REMARK  204  A    between atoms: _525  and  _526
REMARK  205  A    between atoms: _525  and  _528
REMARK  206  A    between atoms: _528  and  _529
REMARK  207  A    between atoms: _532  and  _534
REMARK  208  A    between atoms: _534  and  _535
REMARK  209  A    between atoms: _534  and  _537
REMARK  210  A    between atoms: _537  and  _538
REMARK  211  A    between atoms: _540  and  _542
REMARK  212  A    between atoms: _542  and  _543
REMARK  213  A    between atoms: _542  and  _545
REMARK  214  A    between atoms: _545  and  _546
REMARK  215  A    between atoms: _551  and  _552
REMARK  216  A    between atoms: _554  and  _556
REMARK  217  A    between atoms: _556  and  _557
REMARK  218  A    between atoms: _556  and  _559
REMARK  219  A    between atoms: _559  and  _560
REMARK  220  A    between atoms: _562  and  _564
REMARK  221  A    between atoms: _564  and  _565
REMARK  222  A    between atoms: _564  and  _567
REMARK  223  A    between atoms: _567  and  _568
REMARK  224  A    between atoms: _571  and  _573
REMARK  225  A    between atoms: _573  and  _574
REMARK  226  A    between atoms: _573  and  _576
REMARK  227  A    between atoms: _576  and  _577
REMARK  228  A    between atoms: _582  and  _584
REMARK  229  A    between atoms: _584  and  _585
REMARK  230  A    between atoms: _584  and  _587
REMARK  231  A    between atoms: _587  and  _588
REMARK  232  A    between atoms: _594  and  _596
REMARK  233  A    between atoms: _596  and  _597
REMARK  234  A    between atoms: _601  and  _602
REMARK  235  A    between atoms: _607  and  _609
REMARK  236  A    between atoms: _609  and  _610
REMARK  237  A    between atoms: _609  and  _612
REMARK  238  A    between atoms: _612  and  _613
REMARK  239  A    between atoms: _618  and  _619
REMARK  240  A    between atoms: _621  and  _623
REMARK  241  A    between atoms: _623  and  _624
REMARK  242  A    between atoms: _623  and  _626
REMARK  243  A    between atoms: _626  and  _627
REMARK  244  A    between atoms: _627  and  _628
REMARK  245  A    between atoms: _628  and  _629
REMARK  246  A    between atoms: _629  and  _630
REMARK  247  A    between atoms: _634  and  _636
REMARK  248  A    between atoms: _636  and  _637
REMARK  249  A    between atoms: _636  and  _639
REMARK  250  A    between atoms: _639  and  _640
REMARK  251  A    between atoms: _640  and  _641
REMARK  252  A    between atoms: _646  and  _648
REMARK  253  A    between atoms: _648  and  _649
REMARK  254  A    between atoms: _648  and  _651
REMARK  255  A    between atoms: _651  and  _652
REMARK  256  A    between atoms: _655  and  _656
REMARK  257  A    between atoms: _661  and  _663
REMARK  258  A    between atoms: _663  and  _664
REMARK  259  A    between atoms: _663  and  _666
REMARK  260  A    between atoms: _666  and  _667
REMARK  261  A    between atoms: _673  and  _675
REMARK  262  A    between atoms: _675  and  _676
REMARK  263  A    between atoms: _678  and  _680
REMARK  264  A    between atoms: _680  and  _681
REMARK  265  A    between atoms: _680  and  _683
REMARK  266  A    between atoms: _683  and  _684
REMARK  267  A    between atoms: _689  and  _690
REMARK  268  A    between atoms: _692  and  _694
REMARK  269  A    between atoms: _694  and  _695
REMARK  270  A    between atoms: _694  and  _697
REMARK  271  A    between atoms: _697  and  _698
REMARK  272  A    between atoms: _701  and  _703
REMARK  273  A    between atoms: _703  and  _704
REMARK  274  A    between atoms: _703  and  _706
REMARK  275  A    between atoms: _706  and  _707
REMARK  276  A    between atoms: _712  and  _713
REMARK                            x       y       z     vdW  Elec       q    Type
REMARK                         _______ _______ _______ _____ _____    ______ ____
ROOT
ATOM      1  O   HOH     1      15.001 -12.990  -3.992  0.00  0.00    +0.000 OA
ENDROOT
TORSDOF 0
REMARK  Name = ../refined-set-2016/3m8u/3m8u_pocket.pdb
REMARK  276 active torsions:
REMARK  status: ('A' for Active; 'I' for Inactive)
REMARK    1  A    between atoms: _1  and  _3
REMARK    2  A    between atoms: _3  and  _4
REMARK    3  A    between atoms: _3  and  _6
REMARK    4  A    between atoms: _6  and  _7
REMARK    5  A    between atoms: _12  and  _14
REMARK    6  A    between atoms: _14  and  _15
REMARK    7  A    between atoms: _14  and  _17
REMARK    8  A    between atoms: _20  and  _22
REMARK    9  A    between atoms: _22  and  _23
REMARK   10  A    between atoms: _22  and  _25
REMARK   11  A    between atoms: _25  and  _26
REMARK   12  A    between atoms: _28  and  _30
REMARK   13  A    between atoms: _30  and  _31
REMARK   14  A    between atoms: _30  and  _33
REMARK   15  A    between atoms: _33  and  _34
REMARK   16  A    between atoms: _34  and  _35
REMARK   17  A    between atoms: _35  and  _36
REMARK   18  A    between atoms: _45  and  _47
REMARK   19  A    between atoms: _47  and  _48
REMARK   20  A    between atoms: _47  and  _50
REMARK   21  A    between atoms: _50  and  _51
REMARK   22  A    between atoms: _54  and  _56
REMARK   23  A    between atoms: _56  and  _57
REMARK   24  A    between atoms: _56  and  _59
REMARK   25  A    between atoms: _62  and  _64
REMARK   26  A    between atoms: _64  and  _65
REMARK   27  A    between atoms: _64  and  _67
REMARK   28  A    between atoms: _67  and  _68
REMARK   29  A    between atoms: _68  and  _69
REMARK   30  A    between atoms: _71  and  _73
REMARK   31  A    between atoms: _73  and  _74
REMARK   32  A    between atoms: _73  and  _76
REMARK   33  A    between atoms: _76  and  _77
REMARK   34  A    between atoms: _80  and  _82
REMARK   35  A    between atoms: _82  and  _83
REMARK   36  A    between atoms: _85  and  _87
REMARK   37  A    between atoms: _87  and  _88
REMARK   38  A    between atoms: _87  and  _90
REMARK   39  A    between atoms: _90  and  _91
REMARK   40  A    between atoms: _94  and  _96
REMARK   41  A    between atoms: _96  and  _97
REMARK   42  A    between atoms: _96  and  _99
REMARK   43  A    between atoms: _99  and  _100
REMARK   44  A    between atoms: _102  and  _104
REMARK   45  A    between atoms: _104  and  _105
REMARK   46  A    between atoms: _104  and  _107
REMARK   47  A    between atoms: _107  and  _108
REMARK   48  A    between atoms: _113  and  _114
REMARK   49  A    between atoms: _116  and  _118
REMARK   50  A    between atoms: _118  and  _119
REMARK   51  A    between atoms: _118  and  _121
REMARK   52  A    between atoms: _121  and  _122
REMARK   53  A    between atoms: _127  and  _129
REMARK   54  A    between atoms: _129  and  _130
REMARK   55  A    between atoms: _133  and  _135
REMARK   56  A    between atoms: _135  and  _136
REMARK   57  A    between atoms: _135  and  _138
REMARK   58  A    between atoms: _138  and  _139
REMARK   59  A    between atoms: _139  and  _140
REMARK   60  A    between atoms: _145  and  _147
REMARK   61  A    between atoms: _147  and  _148
REMARK   62  A    between atoms: _147  and  _150
REMARK   63  A    between atoms: _150  and  _151
REMARK   64  A    between atoms: _156  and  _157
REMARK   65  A    between atoms: _159  and  _161
REMARK   66  A    between atoms: _161  and  _162
REMARK   67  A    between atoms: _161  and  _164
REMARK   68  A    between atoms: _164  and  _165
REMARK   69  A    between atoms: _165  and  _166
REMARK   70  A    between atoms: _168  and  _170
REMARK   71  A    between atoms: _170  and  _171
REMARK   72  A    between atoms: _170  and  _173
REMARK   73  A    between atoms: _173  and  _174
REMARK   74  A    between atoms: _177  and  _179
REMARK   75  A    between atoms: _179  and  _180
REMARK   76  A    between atoms: _179  and  _182
REMARK   77  A    between atoms: _182  and  _183
REMARK   78  A    between atoms: _186  and  _188
REMARK   79  A    between atoms: _188  and  _189
REMARK   80  A    between atoms: _188  and  _191
REMARK   81  A    between atoms: _191  and  _192
REMARK   82  A    between atoms: _195  and  _197
REMARK   83  A    between atoms: _197  and  _198
REMARK   84  A    between atoms: _197  and  _200
REMARK   85  A    between atoms: _200  and  _201
REMARK   86  A    between atoms: _204  and  _206
REMARK   87  A    between atoms: _206  and  _207
REMARK   88  A    between atoms: _206  and  _209
REMARK   89  A    between atoms: _209  and  _210
REMARK   90  A    between atoms: _217  and  _218
REMARK   91  A    between atoms: _223  and  _225
REMARK   92  A    between atoms: _225  and  _226
REMARK   93  A    between atoms: _225  and  _228
REMARK   94  A    between atoms: _228  and  _229
REMARK   95  A    between atoms: _234  and  _236
REMARK   96  A    between atoms: _236  and  _237
REMARK   97  A    between atoms: _236  and  _239
REMARK   98  A    between atoms: _239  and  _240
REMARK   99  A    between atoms: _242  and  _244
REMARK  100  A    between atoms: _244  and  _245
REMARK  101  A    between atoms: _244  and  _247
REMARK  102  A    between atoms: _247  and  _248
REMARK  103  A    between atoms: _248  and  _249
REMARK  104  A    between atoms: _254  and  _256
REMARK  105  A    between atoms: _256  and  _257
REMARK  106  A    between atoms: _256  and  _259
REMARK  107  A    between atoms: _259  and  _260
REMARK  108  A    between atoms: _262  and  _264
REMARK  109  A    between atoms: _264  and  _265
REMARK  110  A    between atoms: _267  and  _269
REMARK  111  A    between atoms: _269  and  _270
REMARK  112  A    between atoms: _269  and  _272
REMARK  113  A    between atoms: _272  and  _273
REMARK  114  A    between atoms: _276  and  _278
REMARK  115  A    between atoms: _278  and  _279
REMARK  116  A    between atoms: _278  and  _281
REMARK  117  A    between atoms: _281  and  _282
REMARK  118  A    between atoms: _287  and  _289
REMARK  119  A    between atoms: _289  and  _290
REMARK  120  A    between atoms: _289  and  _292
REMARK  121  A    between atoms: _292  and  _293
REMARK  122  A    between atoms: _296  and  _298
REMARK  123  A    between atoms: _298  and  _299
REMARK  124  A    between atoms: _302  and  _304
REMARK  125  A    between atoms: _304  and  _305
REMARK  126  A    between atoms: _304  and  _307
REMARK  127  A    between atoms: _307  and  _308
REMARK  128  A    between atoms: _313  and  _314
REMARK  129  A    between atoms: _316  and  _318
REMARK  130  A    between atoms: _318  and  _319
REMARK  131  A    between atoms: _318  and  _321
REMARK  132  A    between atoms: _321  and  _322
REMARK  133  A    between atoms: _327  and  _328
REMARK  134  A    between atoms: _330  and  _332
REMARK  135  A    between atoms: _332  and  _333
REMARK  136  A    between atoms: _332  and  _335
REMARK  137  A    between atoms: _335  and  _336
REMARK  138  A    between atoms: _336  and  _337
REMARK  139  A    between atoms: _342  and  _344
REMARK  140  A    between atoms: _344  and  _345
REMARK  141  A    between atoms: _344  and  _347
REMARK  142  A    between atoms: _350  and  _352
REMARK  143  A    between atoms: _352  and  _353
REMARK  144  A    between atoms: _352  and  _355
REMARK  145  A    between atoms: _358  and  _360
REMARK  146  A    between atoms: _360  and  _361
REMARK  147  A    between atoms: _360  and  _363
REMARK  148  A    between atoms: _363  and  _364
REMARK  149  A    between atoms: _364  and  _365
REMARK  150  A    between atoms: _365  and  _366
REMARK  151  A    between atoms: _375  and  _377
REMARK  152  A    between atoms: _377  and  _378
REMARK  153  A    between atoms: _381  and  _383
REMARK  154  A    between atoms: _383  and  _384
REMARK  155  A    between atoms: _383  and  _386
REMARK  156  A    between atoms: _386  and  _387
REMARK  157  A    between atoms: _389  and  _391
REMARK  158  A    between atoms: _391  and  _392
REMARK  159  A    between atoms: _391  and  _394
REMARK  160  A    between atoms: _394  and  _395
REMARK  161  A    between atoms: _400  and  _402
REMARK  162  A    between atoms: _402  and  _403
REMARK  163  A    between atoms: _402  and  _405
REMARK  164  A    between atoms: _405  and  _406
REMARK  165  A    between atoms: _416  and  _418
REMARK  166  A    between atoms: _418  and  _419
REMARK  167  A    between atoms: _418  and  _421
REMARK  168  A    between atoms: _421  and  _422
REMARK  169  A    between atoms: _425  and  _427
REMARK  170  A    between atoms: _427  and  _428
REMARK  171  A    between atoms: _427  and  _430
REMARK  172  A    between atoms: _430  and  _431
REMARK  173  A    between atoms: _436  and  _437
REMARK  174  A    between atoms: _439  and  _441
REMARK  175  A    between atoms: _441  and  _442
REMARK  176  A    between atoms: _444  and  _446
REMARK  177  A    between atoms: _446  and  _447
REMARK  178  A    between atoms: _446  and  _449
REMARK  179  A    between atoms: _449  and  _450
REMARK  180  A    between atoms: _460  and  _462
REMARK  181  A    between atoms: _462  and  _463
REMARK  182  A    between atoms: _462  and  _465
REMARK  183  A    between atoms: _465  and  _466
REMARK  184  A    between atoms: _468  and  _470
REMARK  185  A    between atoms: _470  and  _471
REMARK  186  A    between atoms: _473  and  _475
REMARK  187  A    between atoms: _475  and  _476
REMARK  188  A    between atoms: _475  and  _478
REMARK  189  A    between atoms: _478  and  _479
REMARK  190  A    between atoms: _482  and  _484
REMARK  191  A    between atoms: _484  and  _485
REMARK  192  A    between atoms: _484  and  _487
REMARK  193  A    between atoms: _487  and  _488
REMARK  194  A    between atoms: _493  and  _495
REMARK  195  A    between atoms: _495  and  _496
REMARK  196  A    between atoms: _495  and  _498
REMARK  197  A    between atoms: _498  and  _499
REMARK  198  A    between atoms: _504  and  _506
REMARK  199  A    between atoms: _506  and  _507
REMARK  200  A    between atoms: _506  and  _509
REMARK  201  A    between atoms: _509  and  _510
REMARK  202  A    between atoms: _517  and  _518
REMARK  203  A    between atoms: _523  and  _525
REMARK  204  A    between atoms: _525  and  _526
REMARK  205  A    between atoms: _525  and  _528
REMARK  206  A    between atoms: _528  and  _529
REMARK  207  A    between atoms: _532  and  _534
REMARK  208  A    between atoms: _534  and  _535
REMARK  209  A    between atoms: _534  and  _537
REMARK  210  A    between atoms: _537  and  _538
REMARK  211  A    between atoms: _540  and  _542
REMARK  212  A    between atoms: _542  and  _543
REMARK  213  A    between atoms: _542  and  _545
REMARK  214  A    between atoms: _545  and  _546
REMARK  215  A    between atoms: _551  and  _552
REMARK  216  A    between atoms: _554  and  _556
REMARK  217  A    between atoms: _556  and  _557
REMARK  218  A    between atoms: _556  and  _559
REMARK  219  A    between atoms: _559  and  _560
REMARK  220  A    between atoms: _562  and  _564
REMARK  221  A    between atoms: _564  and  _565
REMARK  222  A    between atoms: _564  and  _567
REMARK  223  A    between atoms: _567  and  _568
REMARK  224  A    between atoms: _571  and  _573
REMARK  225  A    between atoms: _573  and  _574
REMARK  226  A    between atoms: _573  and  _576
REMARK  227  A    between atoms: _576  and  _577
REMARK  228  A    between atoms: _582  and  _584
REMARK  229  A    between atoms: _584  and  _585
REMARK  230  A    between atoms: _584  and  _587
REMARK  231  A    between atoms: _587  and  _588
REMARK  232  A    between atoms: _594  and  _596
REMARK  233  A    between atoms: _596  and  _597
REMARK  234  A    between atoms: _601  and  _602
REMARK  235  A    between atoms: _607  and  _609
REMARK  236  A    between atoms: _609  and  _610
REMARK  237  A    between atoms: _609  and  _612
REMARK  238  A    between atoms: _612  and  _613
REMARK  239  A    between atoms: _618  and  _619
REMARK  240  A    between atoms: _621  and  _623
REMARK  241  A    between atoms: _623  and  _624
REMARK  242  A    between atoms: _623  and  _626
REMARK  243  A    between atoms: _626  and  _627
REMARK  244  A    between atoms: _627  and  _628
REMARK  245  A    between atoms: _628  and  _629
REMARK  246  A    between atoms: _629  and  _630
REMARK  247  A    between atoms: _634  and  _636
REMARK  248  A    between atoms: _636  and  _637
REMARK  249  A    between atoms: _636  and  _639
REMARK  250  A    between atoms: _639  and  _640
REMARK  251  A    between atoms: _640  and  _641
REMARK  252  A    between atoms: _646  and  _648
REMARK  253  A    between atoms: _648  and  _649
REMARK  254  A    between atoms: _648  and  _651
REMARK  255  A    between atoms: _651  and  _652
REMARK  256  A    between atoms: _655  and  _656
REMARK  257  A    between atoms: _661  and  _663
REMARK  258  A    between atoms: _663  and  _664
REMARK  259  A    between atoms: _663  and  _666
REMARK  260  A    between atoms: _666  and  _667
REMARK  261  A    between atoms: _673  and  _675
REMARK  262  A    between atoms: _675  and  _676
REMARK  263  A    between atoms: _678  and  _680
REMARK  264  A    between atoms: _680  and  _681
REMARK  265  A    between atoms: _680  and  _683
REMARK  266  A    between atoms: _683  and  _684
REMARK  267  A    between atoms: _689  and  _690
REMARK  268  A    between atoms: _692  and  _694
REMARK  269  A    between atoms: _694  and  _695
REMARK  270  A    between atoms: _694  and  _697
REMARK  271  A    between atoms: _697  and  _698
REMARK  272  A    between atoms: _701  and  _703
REMARK  273  A    between atoms: _703  and  _704
REMARK  274  A    between atoms: _703  and  _706
REMARK  275  A    between atoms: _706  and  _707
REMARK  276  A    between atoms: _712  and  _713
REMARK                            x       y       z     vdW  Elec       q    Type
REMARK                         _______ _______ _______ _____ _____    ______ ____
ROOT
ATOM      1  O   HOH     1      18.774 -24.363  -9.910  0.00  0.00    +0.000 OA
ENDROOT
TORSDOF 0
REMARK  Name = ../refined-set-2016/3m8u/3m8u_pocket.pdb
REMARK  276 active torsions:
REMARK  status: ('A' for Active; 'I' for Inactive)
REMARK    1  A    between atoms: _1  and  _3
REMARK    2  A    between atoms: _3  and  _4
REMARK    3  A    between atoms: _3  and  _6
REMARK    4  A    between atoms: _6  and  _7
REMARK    5  A    between atoms: _12  and  _14
REMARK    6  A    between atoms: _14  and  _15
REMARK    7  A    between atoms: _14  and  _17
REMARK    8  A    between atoms: _20  and  _22
REMARK    9  A    between atoms: _22  and  _23
REMARK   10  A    between atoms: _22  and  _25
REMARK   11  A    between atoms: _25  and  _26
REMARK   12  A    between atoms: _28  and  _30
REMARK   13  A    between atoms: _30  and  _31
REMARK   14  A    between atoms: _30  and  _33
REMARK   15  A    between atoms: _33  and  _34
REMARK   16  A    between atoms: _34  and  _35
REMARK   17  A    between atoms: _35  and  _36
REMARK   18  A    between atoms: _45  and  _47
REMARK   19  A    between atoms: _47  and  _48
REMARK   20  A    between atoms: _47  and  _50
REMARK   21  A    between atoms: _50  and  _51
REMARK   22  A    between atoms: _54  and  _56
REMARK   23  A    between atoms: _56  and  _57
REMARK   24  A    between atoms: _56  and  _59
REMARK   25  A    between atoms: _62  and  _64
REMARK   26  A    between atoms: _64  and  _65
REMARK   27  A    between atoms: _64  and  _67
REMARK   28  A    between atoms: _67  and  _68
REMARK   29  A    between atoms: _68  and  _69
REMARK   30  A    between atoms: _71  and  _73
REMARK   31  A    between atoms: _73  and  _74
REMARK   32  A    between atoms: _73  and  _76
REMARK   33  A    between atoms: _76  and  _77
REMARK   34  A    between atoms: _80  and  _82
REMARK   35  A    between atoms: _82  and  _83
REMARK   36  A    between atoms: _85  and  _87
REMARK   37  A    between atoms: _87  and  _88
REMARK   38  A    between atoms: _87  and  _90
REMARK   39  A    between atoms: _90  and  _91
REMARK   40  A    between atoms: _94  and  _96
REMARK   41  A    between atoms: _96  and  _97
REMARK   42  A    between atoms: _96  and  _99
REMARK   43  A    between atoms: _99  and  _100
REMARK   44  A    between atoms: _102  and  _104
REMARK   45  A    between atoms: _104  and  _105
REMARK   46  A    between atoms: _104  and  _107
REMARK   47  A    between atoms: _107  and  _108
REMARK   48  A    between atoms: _113  and  _114
REMARK   49  A    between atoms: _116  and  _118
REMARK   50  A    between atoms: _118  and  _119
REMARK   51  A    between atoms: _118  and  _121
REMARK   52  A    between atoms: _121  and  _122
REMARK   53  A    between atoms: _127  and  _129
REMARK   54  A    between atoms: _129  and  _130
REMARK   55  A    between atoms: _133  and  _135
REMARK   56  A    between atoms: _135  and  _136
REMARK   57  A    between atoms: _135  and  _138
REMARK   58  A    between atoms: _138  and  _139
REMARK   59  A    between atoms: _139  and  _140
REMARK   60  A    between atoms: _145  and  _147
REMARK   61  A    between atoms: _147  and  _148
REMARK   62  A    between atoms: _147  and  _150
REMARK   63  A    between atoms: _150  and  _151
REMARK   64  A    between atoms: _156  and  _157
REMARK   65  A    between atoms: _159  and  _161
REMARK   66  A    between atoms: _161  and  _162
REMARK   67  A    between atoms: _161  and  _164
REMARK   68  A    between atoms: _164  and  _165
REMARK   69  A    between atoms: _165  and  _166
REMARK   70  A    between atoms: _168  and  _170
REMARK   71  A    between atoms: _170  and  _171
REMARK   72  A    between atoms: _170  and  _173
REMARK   73  A    between atoms: _173  and  _174
REMARK   74  A    between atoms: _177  and  _179
REMARK   75  A    between atoms: _179  and  _180
REMARK   76  A    between atoms: _179  and  _182
REMARK   77  A    between atoms: _182  and  _183
REMARK   78  A    between atoms: _186  and  _188
REMARK   79  A    between atoms: _188  and  _189
REMARK   80  A    between atoms: _188  and  _191
REMARK   81  A    between atoms: _191  and  _192
REMARK   82  A    between atoms: _195  and  _197
REMARK   83  A    between atoms: _197  and  _198
REMARK   84  A    between atoms: _197  and  _200
REMARK   85  A    between atoms: _200  and  _201
REMARK   86  A    between atoms: _204  and  _206
REMARK   87  A    between atoms: _206  and  _207
REMARK   88  A    between atoms: _206  and  _209
REMARK   89  A    between atoms: _209  and  _210
REMARK   90  A    between atoms: _217  and  _218
REMARK   91  A    between atoms: _223  and  _225
REMARK   92  A    between atoms: _225  and  _226
REMARK   93  A    between atoms: _225  and  _228
REMARK   94  A    between atoms: _228  and  _229
REMARK   95  A    between atoms: _234  and  _236
REMARK   96  A    between atoms: _236  and  _237
REMARK   97  A    between atoms: _236  and  _239
REMARK   98  A    between atoms: _239  and  _240
REMARK   99  A    between atoms: _242  and  _244
REMARK  100  A    between atoms: _244  and  _245
REMARK  101  A    between atoms: _244  and  _247
REMARK  102  A    between atoms: _247  and  _248
REMARK  103  A    between atoms: _248  and  _249
REMARK  104  A    between atoms: _254  and  _256
REMARK  105  A    between atoms: _256  and  _257
REMARK  106  A    between atoms: _256  and  _259
REMARK  107  A    between atoms: _259  and  _260
REMARK  108  A    between atoms: _262  and  _264
REMARK  109  A    between atoms: _264  and  _265
REMARK  110  A    between atoms: _267  and  _269
REMARK  111  A    between atoms: _269  and  _270
REMARK  112  A    between atoms: _269  and  _272
REMARK  113  A    between atoms: _272  and  _273
REMARK  114  A    between atoms: _276  and  _278
REMARK  115  A    between atoms: _278  and  _279
REMARK  116  A    between atoms: _278  and  _281
REMARK  117  A    between atoms: _281  and  _282
REMARK  118  A    between atoms: _287  and  _289
REMARK  119  A    between atoms: _289  and  _290
REMARK  120  A    between atoms: _289  and  _292
REMARK  121  A    between atoms: _292  and  _293
REMARK  122  A    between atoms: _296  and  _298
REMARK  123  A    between atoms: _298  and  _299
REMARK  124  A    between atoms: _302  and  _304
REMARK  125  A    between atoms: _304  and  _305
REMARK  126  A    between atoms: _304  and  _307
REMARK  127  A    between atoms: _307  and  _308
REMARK  128  A    between atoms: _313  and  _314
REMARK  129  A    between atoms: _316  and  _318
REMARK  130  A    between atoms: _318  and  _319
REMARK  131  A    between atoms: _318  and  _321
REMARK  132  A    between atoms: _321  and  _322
REMARK  133  A    between atoms: _327  and  _328
REMARK  134  A    between atoms: _330  and  _332
REMARK  135  A    between atoms: _332  and  _333
REMARK  136  A    between atoms: _332  and  _335
REMARK  137  A    between atoms: _335  and  _336
REMARK  138  A    between atoms: _336  and  _337
REMARK  139  A    between atoms: _342  and  _344
REMARK  140  A    between atoms: _344  and  _345
REMARK  141  A    between atoms: _344  and  _347
REMARK  142  A    between atoms: _350  and  _352
REMARK  143  A    between atoms: _352  and  _353
REMARK  144  A    between atoms: _352  and  _355
REMARK  145  A    between atoms: _358  and  _360
REMARK  146  A    between atoms: _360  and  _361
REMARK  147  A    between atoms: _360  and  _363
REMARK  148  A    between atoms: _363  and  _364
REMARK  149  A    between atoms: _364  and  _365
REMARK  150  A    between atoms: _365  and  _366
REMARK  151  A    between atoms: _375  and  _377
REMARK  152  A    between atoms: _377  and  _378
REMARK  153  A    between atoms: _381  and  _383
REMARK  154  A    between atoms: _383  and  _384
REMARK  155  A    between atoms: _383  and  _386
REMARK  156  A    between atoms: _386  and  _387
REMARK  157  A    between atoms: _389  and  _391
REMARK  158  A    between atoms: _391  and  _392
REMARK  159  A    between atoms: _391  and  _394
REMARK  160  A    between atoms: _394  and  _395
REMARK  161  A    between atoms: _400  and  _402
REMARK  162  A    between atoms: _402  and  _403
REMARK  163  A    between atoms: _402  and  _405
REMARK  164  A    between atoms: _405  and  _406
REMARK  165  A    between atoms: _416  and  _418
REMARK  166  A    between atoms: _418  and  _419
REMARK  167  A    between atoms: _418  and  _421
REMARK  168  A    between atoms: _421  and  _422
REMARK  169  A    between atoms: _425  and  _427
REMARK  170  A    between atoms: _427  and  _428
REMARK  171  A    between atoms: _427  and  _430
REMARK  172  A    between atoms: _430  and  _431
REMARK  173  A    between atoms: _436  and  _437
REMARK  174  A    between atoms: _439  and  _441
REMARK  175  A    between atoms: _441  and  _442
REMARK  176  A    between atoms: _444  and  _446
REMARK  177  A    between atoms: _446  and  _447
REMARK  178  A    between atoms: _446  and  _449
REMARK  179  A    between atoms: _449  and  _450
REMARK  180  A    between atoms: _460  and  _462
REMARK  181  A    between atoms: _462  and  _463
REMARK  182  A    between atoms: _462  and  _465
REMARK  183  A    between atoms: _465  and  _466
REMARK  184  A    between atoms: _468  and  _470
REMARK  185  A    between atoms: _470  and  _471
REMARK  186  A    between atoms: _473  and  _475
REMARK  187  A    between atoms: _475  and  _476
REMARK  188  A    between atoms: _475  and  _478
REMARK  189  A    between atoms: _478  and  _479
REMARK  190  A    between atoms: _482  and  _484
REMARK  191  A    between atoms: _484  and  _485
REMARK  192  A    between atoms: _484  and  _487
REMARK  193  A    between atoms: _487  and  _488
REMARK  194  A    between atoms: _493  and  _495
REMARK  195  A    between atoms: _495  and  _496
REMARK  196  A    between atoms: _495  and  _498
REMARK  197  A    between atoms: _498  and  _499
REMARK  198  A    between atoms: _504  and  _506
REMARK  199  A    between atoms: _506  and  _507
REMARK  200  A    between atoms: _506  and  _509
REMARK  201  A    between atoms: _509  and  _510
REMARK  202  A    between atoms: _517  and  _518
REMARK  203  A    between atoms: _523  and  _525
REMARK  204  A    between atoms: _525  and  _526
REMARK  205  A    between atoms: _525  and  _528
REMARK  206  A    between atoms: _528  and  _529
REMARK  207  A    between atoms: _532  and  _534
REMARK  208  A    between atoms: _534  and  _535
REMARK  209  A    between atoms: _534  and  _537
REMARK  210  A    between atoms: _537  and  _538
REMARK  211  A    between atoms: _540  and  _542
REMARK  212  A    between atoms: _542  and  _543
REMARK  213  A    between atoms: _542  and  _545
REMARK  214  A    between atoms: _545  and  _546
REMARK  215  A    between atoms: _551  and  _552
REMARK  216  A    between atoms: _554  and  _556
REMARK  217  A    between atoms: _556  and  _557
REMARK  218  A    between atoms: _556  and  _559
REMARK  219  A    between atoms: _559  and  _560
REMARK  220  A    between atoms: _562  and  _564
REMARK  221  A    between atoms: _564  and  _565
REMARK  222  A    between atoms: _564  and  _567
REMARK  223  A    between atoms: _567  and  _568
REMARK  224  A    between atoms: _571  and  _573
REMARK  225  A    between atoms: _573  and  _574
REMARK  226  A    between atoms: _573  and  _576
REMARK  227  A    between atoms: _576  and  _577
REMARK  228  A    between atoms: _582  and  _584
REMARK  229  A    between atoms: _584  and  _585
REMARK  230  A    between atoms: _584  and  _587
REMARK  231  A    between atoms: _587  and  _588
REMARK  232  A    between atoms: _594  and  _596
REMARK  233  A    between atoms: _596  and  _597
REMARK  234  A    between atoms: _601  and  _602
REMARK  235  A    between atoms: _607  and  _609
REMARK  236  A    between atoms: _609  and  _610
REMARK  237  A    between atoms: _609  and  _612
REMARK  238  A    between atoms: _612  and  _613
REMARK  239  A    between atoms: _618  and  _619
REMARK  240  A    between atoms: _621  and  _623
REMARK  241  A    between atoms: _623  and  _624
REMARK  242  A    between atoms: _623  and  _626
REMARK  243  A    between atoms: _626  and  _627
REMARK  244  A    between atoms: _627  and  _628
REMARK  245  A    between atoms: _628  and  _629
REMARK  246  A    between atoms: _629  and  _630
REMARK  247  A    between atoms: _634  and  _636
REMARK  248  A    between atoms: _636  and  _637
REMARK  249  A    between atoms: _636  and  _639
REMARK  250  A    between atoms: _639  and  _640
REMARK  251  A    between atoms: _640  and  _641
REMARK  252  A    between atoms: _646  and  _648
REMARK  253  A    between atoms: _648  and  _649
REMARK  254  A    between atoms: _648  and  _651
REMARK  255  A    between atoms: _651  and  _652
REMARK  256  A    between atoms: _655  and  _656
REMARK  257  A    between atoms: _661  and  _663
REMARK  258  A    between atoms: _663  and  _664
REMARK  259  A    between atoms: _663  and  _666
REMARK  260  A    between atoms: _666  and  _667
REMARK  261  A    between atoms: _673  and  _675
REMARK  262  A    between atoms: _675  and  _676
REMARK  263  A    between atoms: _678  and  _680
REMARK  264  A    between atoms: _680  and  _681
REMARK  265  A    between atoms: _680  and  _683
REMARK  266  A    between atoms: _683  and  _684
REMARK  267  A    between atoms: _689  and  _690
REMARK  268  A    between atoms: _692  and  _694
REMARK  269  A    between atoms: _694  and  _695
REMARK  270  A    between atoms: _694  and  _697
REMARK  271  A    between atoms: _697  and  _698
REMARK  272  A    between atoms: _701  and  _703
REMARK  273  A    between atoms: _703  and  _704
REMARK  274  A    between atoms: _703  and  _706
REMARK  275  A    between atoms: _706  and  _707
REMARK  276  A    between atoms: _712  and  _713
REMARK                            x       y       z     vdW  Elec       q    Type
REMARK                         _______ _______ _______ _____ _____    ______ ____
ROOT
ATOM      1  O   HOH     1      11.913  -8.228 -14.603  0.00  0.00    +0.000 OA
ENDROOT
TORSDOF 0
REMARK  Name = ../refined-set-2016/3m8u/3m8u_pocket.pdb
REMARK  276 active torsions:
REMARK  status: ('A' for Active; 'I' for Inactive)
REMARK    1  A    between atoms: _1  and  _3
REMARK    2  A    between atoms: _3  and  _4
REMARK    3  A    between atoms: _3  and  _6
REMARK    4  A    between atoms: _6  and  _7
REMARK    5  A    between atoms: _12  and  _14
REMARK    6  A    between atoms: _14  and  _15
REMARK    7  A    between atoms: _14  and  _17
REMARK    8  A    between atoms: _20  and  _22
REMARK    9  A    between atoms: _22  and  _23
REMARK   10  A    between atoms: _22  and  _25
REMARK   11  A    between atoms: _25  and  _26
REMARK   12  A    between atoms: _28  and  _30
REMARK   13  A    between atoms: _30  and  _31
REMARK   14  A    between atoms: _30  and  _33
REMARK   15  A    between atoms: _33  and  _34
REMARK   16  A    between atoms: _34  and  _35
REMARK   17  A    between atoms: _35  and  _36
REMARK   18  A    between atoms: _45  and  _47
REMARK   19  A    between atoms: _47  and  _48
REMARK   20  A    between atoms: _47  and  _50
REMARK   21  A    between atoms: _50  and  _51
REMARK   22  A    between atoms: _54  and  _56
REMARK   23  A    between atoms: _56  and  _57
REMARK   24  A    between atoms: _56  and  _59
REMARK   25  A    between atoms: _62  and  _64
REMARK   26  A    between atoms: _64  and  _65
REMARK   27  A    between atoms: _64  and  _67
REMARK   28  A    between atoms: _67  and  _68
REMARK   29  A    between atoms: _68  and  _69
REMARK   30  A    between atoms: _71  and  _73
REMARK   31  A    between atoms: _73  and  _74
REMARK   32  A    between atoms: _73  and  _76
REMARK   33  A    between atoms: _76  and  _77
REMARK   34  A    between atoms: _80  and  _82
REMARK   35  A    between atoms: _82  and  _83
REMARK   36  A    between atoms: _85  and  _87
REMARK   37  A    between atoms: _87  and  _88
REMARK   38  A    between atoms: _87  and  _90
REMARK   39  A    between atoms: _90  and  _91
REMARK   40  A    between atoms: _94  and  _96
REMARK   41  A    between atoms: _96  and  _97
REMARK   42  A    between atoms: _96  and  _99
REMARK   43  A    between atoms: _99  and  _100
REMARK   44  A    between atoms: _102  and  _104
REMARK   45  A    between atoms: _104  and  _105
REMARK   46  A    between atoms: _104  and  _107
REMARK   47  A    between atoms: _107  and  _108
REMARK   48  A    between atoms: _113  and  _114
REMARK   49  A    between atoms: _116  and  _118
REMARK   50  A    between atoms: _118  and  _119
REMARK   51  A    between atoms: _118  and  _121
REMARK   52  A    between atoms: _121  and  _122
REMARK   53  A    between atoms: _127  and  _129
REMARK   54  A    between atoms: _129  and  _130
REMARK   55  A    between atoms: _133  and  _135
REMARK   56  A    between atoms: _135  and  _136
REMARK   57  A    between atoms: _135  and  _138
REMARK   58  A    between atoms: _138  and  _139
REMARK   59  A    between atoms: _139  and  _140
REMARK   60  A    between atoms: _145  and  _147
REMARK   61  A    between atoms: _147  and  _148
REMARK   62  A    between atoms: _147  and  _150
REMARK   63  A    between atoms: _150  and  _151
REMARK   64  A    between atoms: _156  and  _157
REMARK   65  A    between atoms: _159  and  _161
REMARK   66  A    between atoms: _161  and  _162
REMARK   67  A    between atoms: _161  and  _164
REMARK   68  A    between atoms: _164  and  _165
REMARK   69  A    between atoms: _165  and  _166
REMARK   70  A    between atoms: _168  and  _170
REMARK   71  A    between atoms: _170  and  _171
REMARK   72  A    between atoms: _170  and  _173
REMARK   73  A    between atoms: _173  and  _174
REMARK   74  A    between atoms: _177  and  _179
REMARK   75  A    between atoms: _179  and  _180
REMARK   76  A    between atoms: _179  and  _182
REMARK   77  A    between atoms: _182  and  _183
REMARK   78  A    between atoms: _186  and  _188
REMARK   79  A    between atoms: _188  and  _189
REMARK   80  A    between atoms: _188  and  _191
REMARK   81  A    between atoms: _191  and  _192
REMARK   82  A    between atoms: _195  and  _197
REMARK   83  A    between atoms: _197  and  _198
REMARK   84  A    between atoms: _197  and  _200
REMARK   85  A    between atoms: _200  and  _201
REMARK   86  A    between atoms: _204  and  _206
REMARK   87  A    between atoms: _206  and  _207
REMARK   88  A    between atoms: _206  and  _209
REMARK   89  A    between atoms: _209  and  _210
REMARK   90  A    between atoms: _217  and  _218
REMARK   91  A    between atoms: _223  and  _225
REMARK   92  A    between atoms: _225  and  _226
REMARK   93  A    between atoms: _225  and  _228
REMARK   94  A    between atoms: _228  and  _229
REMARK   95  A    between atoms: _234  and  _236
REMARK   96  A    between atoms: _236  and  _237
REMARK   97  A    between atoms: _236  and  _239
REMARK   98  A    between atoms: _239  and  _240
REMARK   99  A    between atoms: _242  and  _244
REMARK  100  A    between atoms: _244  and  _245
REMARK  101  A    between atoms: _244  and  _247
REMARK  102  A    between atoms: _247  and  _248
REMARK  103  A    between atoms: _248  and  _249
REMARK  104  A    between atoms: _254  and  _256
REMARK  105  A    between atoms: _256  and  _257
REMARK  106  A    between atoms: _256  and  _259
REMARK  107  A    between atoms: _259  and  _260
REMARK  108  A    between atoms: _262  and  _264
REMARK  109  A    between atoms: _264  and  _265
REMARK  110  A    between atoms: _267  and  _269
REMARK  111  A    between atoms: _269  and  _270
REMARK  112  A    between atoms: _269  and  _272
REMARK  113  A    between atoms: _272  and  _273
REMARK  114  A    between atoms: _276  and  _278
REMARK  115  A    between atoms: _278  and  _279
REMARK  116  A    between atoms: _278  and  _281
REMARK  117  A    between atoms: _281  and  _282
REMARK  118  A    between atoms: _287  and  _289
REMARK  119  A    between atoms: _289  and  _290
REMARK  120  A    between atoms: _289  and  _292
REMARK  121  A    between atoms: _292  and  _293
REMARK  122  A    between atoms: _296  and  _298
REMARK  123  A    between atoms: _298  and  _299
REMARK  124  A    between atoms: _302  and  _304
REMARK  125  A    between atoms: _304  and  _305
REMARK  126  A    between atoms: _304  and  _307
REMARK  127  A    between atoms: _307  and  _308
REMARK  128  A    between atoms: _313  and  _314
REMARK  129  A    between atoms: _316  and  _318
REMARK  130  A    between atoms: _318  and  _319
REMARK  131  A    between atoms: _318  and  _321
REMARK  132  A    between atoms: _321  and  _322
REMARK  133  A    between atoms: _327  and  _328
REMARK  134  A    between atoms: _330  and  _332
REMARK  135  A    between atoms: _332  and  _333
REMARK  136  A    between atoms: _332  and  _335
REMARK  137  A    between atoms: _335  and  _336
REMARK  138  A    between atoms: _336  and  _337
REMARK  139  A    between atoms: _342  and  _344
REMARK  140  A    between atoms: _344  and  _345
REMARK  141  A    between atoms: _344  and  _347
REMARK  142  A    between atoms: _350  and  _352
REMARK  143  A    between atoms: _352  and  _353
REMARK  144  A    between atoms: _352  and  _355
REMARK  145  A    between atoms: _358  and  _360
REMARK  146  A    between atoms: _360  and  _361
REMARK  147  A    between atoms: _360  and  _363
REMARK  148  A    between atoms: _363  and  _364
REMARK  149  A    between atoms: _364  and  _365
REMARK  150  A    between atoms: _365  and  _366
REMARK  151  A    between atoms: _375  and  _377
REMARK  152  A    between atoms: _377  and  _378
REMARK  153  A    between atoms: _381  and  _383
REMARK  154  A    between atoms: _383  and  _384
REMARK  155  A    between atoms: _383  and  _386
REMARK  156  A    between atoms: _386  and  _387
REMARK  157  A    between atoms: _389  and  _391
REMARK  158  A    between atoms: _391  and  _392
REMARK  159  A    between atoms: _391  and  _394
REMARK  160  A    between atoms: _394  and  _395
REMARK  161  A    between atoms: _400  and  _402
REMARK  162  A    between atoms: _402  and  _403
REMARK  163  A    between atoms: _402  and  _405
REMARK  164  A    between atoms: _405  and  _406
REMARK  165  A    between atoms: _416  and  _418
REMARK  166  A    between atoms: _418  and  _419
REMARK  167  A    between atoms: _418  and  _421
REMARK  168  A    between atoms: _421  and  _422
REMARK  169  A    between atoms: _425  and  _427
REMARK  170  A    between atoms: _427  and  _428
REMARK  171  A    between atoms: _427  and  _430
REMARK  172  A    between atoms: _430  and  _431
REMARK  173  A    between atoms: _436  and  _437
REMARK  174  A    between atoms: _439  and  _441
REMARK  175  A    between atoms: _441  and  _442
REMARK  176  A    between atoms: _444  and  _446
REMARK  177  A    between atoms: _446  and  _447
REMARK  178  A    between atoms: _446  and  _449
REMARK  179  A    between atoms: _449  and  _450
REMARK  180  A    between atoms: _460  and  _462
REMARK  181  A    between atoms: _462  and  _463
REMARK  182  A    between atoms: _462  and  _465
REMARK  183  A    between atoms: _465  and  _466
REMARK  184  A    between atoms: _468  and  _470
REMARK  185  A    between atoms: _470  and  _471
REMARK  186  A    between atoms: _473  and  _475
REMARK  187  A    between atoms: _475  and  _476
REMARK  188  A    between atoms: _475  and  _478
REMARK  189  A    between atoms: _478  and  _479
REMARK  190  A    between atoms: _482  and  _484
REMARK  191  A    between atoms: _484  and  _485
REMARK  192  A    between atoms: _484  and  _487
REMARK  193  A    between atoms: _487  and  _488
REMARK  194  A    between atoms: _493  and  _495
REMARK  195  A    between atoms: _495  and  _496
REMARK  196  A    between atoms: _495  and  _498
REMARK  197  A    between atoms: _498  and  _499
REMARK  198  A    between atoms: _504  and  _506
REMARK  199  A    between atoms: _506  and  _507
REMARK  200  A    between atoms: _506  and  _509
REMARK  201  A    between atoms: _509  and  _510
REMARK  202  A    between atoms: _517  and  _518
REMARK  203  A    between atoms: _523  and  _525
REMARK  204  A    between atoms: _525  and  _526
REMARK  205  A    between atoms: _525  and  _528
REMARK  206  A    between atoms: _528  and  _529
REMARK  207  A    between atoms: _532  and  _534
REMARK  208  A    between atoms: _534  and  _535
REMARK  209  A    between atoms: _534  and  _537
REMARK  210  A    between atoms: _537  and  _538
REMARK  211  A    between atoms: _540  and  _542
REMARK  212  A    between atoms: _542  and  _543
REMARK  213  A    between atoms: _542  and  _545
REMARK  214  A    between atoms: _545  and  _546
REMARK  215  A    between atoms: _551  and  _552
REMARK  216  A    between atoms: _554  and  _556
REMARK  217  A    between atoms: _556  and  _557
REMARK  218  A    between atoms: _556  and  _559
REMARK  219  A    between atoms: _559  and  _560
REMARK  220  A    between atoms: _562  and  _564
REMARK  221  A    between atoms: _564  and  _565
REMARK  222  A    between atoms: _564  and  _567
REMARK  223  A    between atoms: _567  and  _568
REMARK  224  A    between atoms: _571  and  _573
REMARK  225  A    between atoms: _573  and  _574
REMARK  226  A    between atoms: _573  and  _576
REMARK  227  A    between atoms: _576  and  _577
REMARK  228  A    between atoms: _582  and  _584
REMARK  229  A    between atoms: _584  and  _585
REMARK  230  A    between atoms: _584  and  _587
REMARK  231  A    between atoms: _587  and  _588
REMARK  232  A    between atoms: _594  and  _596
REMARK  233  A    between atoms: _596  and  _597
REMARK  234  A    between atoms: _601  and  _602
REMARK  235  A    between atoms: _607  and  _609
REMARK  236  A    between atoms: _609  and  _610
REMARK  237  A    between atoms: _609  and  _612
REMARK  238  A    between atoms: _612  and  _613
REMARK  239  A    between atoms: _618  and  _619
REMARK  240  A    between atoms: _621  and  _623
REMARK  241  A    between atoms: _623  and  _624
REMARK  242  A    between atoms: _623  and  _626
REMARK  243  A    between atoms: _626  and  _627
REMARK  244  A    between atoms: _627  and  _628
REMARK  245  A    between atoms: _628  and  _629
REMARK  246  A    between atoms: _629  and  _630
REMARK  247  A    between atoms: _634  and  _636
REMARK  248  A    between atoms: _636  and  _637
REMARK  249  A    between atoms: _636  and  _639
REMARK  250  A    between atoms: _639  and  _640
REMARK  251  A    between atoms: _640  and  _641
REMARK  252  A    between atoms: _646  and  _648
REMARK  253  A    between atoms: _648  and  _649
REMARK  254  A    between atoms: _648  and  _651
REMARK  255  A    between atoms: _651  and  _652
REMARK  256  A    between atoms: _655  and  _656
REMARK  257  A    between atoms: _661  and  _663
REMARK  258  A    between atoms: _663  and  _664
REMARK  259  A    between atoms: _663  and  _666
REMARK  260  A    between atoms: _666  and  _667
REMARK  261  A    between atoms: _673  and  _675
REMARK  262  A    between atoms: _675  and  _676
REMARK  263  A    between atoms: _678  and  _680
REMARK  264  A    between atoms: _680  and  _681
REMARK  265  A    between atoms: _680  and  _683
REMARK  266  A    between atoms: _683  and  _684
REMARK  267  A    between atoms: _689  and  _690
REMARK  268  A    between atoms: _692  and  _694
REMARK  269  A    between atoms: _694  and  _695
REMARK  270  A    between atoms: _694  and  _697
REMARK  271  A    between atoms: _697  and  _698
REMARK  272  A    between atoms: _701  and  _703
REMARK  273  A    between atoms: _703  and  _704
REMARK  274  A    between atoms: _703  and  _706
REMARK  275  A    between atoms: _706  and  _707
REMARK  276  A    between atoms: _712  and  _713
REMARK                            x       y       z     vdW  Elec       q    Type
REMARK                         _______ _______ _______ _____ _____    ______ ____
ROOT
ATOM      1  O   HOH     1      14.123  -7.519 -11.858  0.00  0.00    +0.000 OA
ENDROOT
TORSDOF 0
REMARK  Name = ../refined-set-2016/3m8u/3m8u_pocket.pdb
REMARK  276 active torsions:
REMARK  status: ('A' for Active; 'I' for Inactive)
REMARK    1  A    between atoms: _1  and  _3
REMARK    2  A    between atoms: _3  and  _4
REMARK    3  A    between atoms: _3  and  _6
REMARK    4  A    between atoms: _6  and  _7
REMARK    5  A    between atoms: _12  and  _14
REMARK    6  A    between atoms: _14  and  _15
REMARK    7  A    between atoms: _14  and  _17
REMARK    8  A    between atoms: _20  and  _22
REMARK    9  A    between atoms: _22  and  _23
REMARK   10  A    between atoms: _22  and  _25
REMARK   11  A    between atoms: _25  and  _26
REMARK   12  A    between atoms: _28  and  _30
REMARK   13  A    between atoms: _30  and  _31
REMARK   14  A    between atoms: _30  and  _33
REMARK   15  A    between atoms: _33  and  _34
REMARK   16  A    between atoms: _34  and  _35
REMARK   17  A    between atoms: _35  and  _36
REMARK   18  A    between atoms: _45  and  _47
REMARK   19  A    between atoms: _47  and  _48
REMARK   20  A    between atoms: _47  and  _50
REMARK   21  A    between atoms: _50  and  _51
REMARK   22  A    between atoms: _54  and  _56
REMARK   23  A    between atoms: _56  and  _57
REMARK   24  A    between atoms: _56  and  _59
REMARK   25  A    between atoms: _62  and  _64
REMARK   26  A    between atoms: _64  and  _65
REMARK   27  A    between atoms: _64  and  _67
REMARK   28  A    between atoms: _67  and  _68
REMARK   29  A    between atoms: _68  and  _69
REMARK   30  A    between atoms: _71  and  _73
REMARK   31  A    between atoms: _73  and  _74
REMARK   32  A    between atoms: _73  and  _76
REMARK   33  A    between atoms: _76  and  _77
REMARK   34  A    between atoms: _80  and  _82
REMARK   35  A    between atoms: _82  and  _83
REMARK   36  A    between atoms: _85  and  _87
REMARK   37  A    between atoms: _87  and  _88
REMARK   38  A    between atoms: _87  and  _90
REMARK   39  A    between atoms: _90  and  _91
REMARK   40  A    between atoms: _94  and  _96
REMARK   41  A    between atoms: _96  and  _97
REMARK   42  A    between atoms: _96  and  _99
REMARK   43  A    between atoms: _99  and  _100
REMARK   44  A    between atoms: _102  and  _104
REMARK   45  A    between atoms: _104  and  _105
REMARK   46  A    between atoms: _104  and  _107
REMARK   47  A    between atoms: _107  and  _108
REMARK   48  A    between atoms: _113  and  _114
REMARK   49  A    between atoms: _116  and  _118
REMARK   50  A    between atoms: _118  and  _119
REMARK   51  A    between atoms: _118  and  _121
REMARK   52  A    between atoms: _121  and  _122
REMARK   53  A    between atoms: _127  and  _129
REMARK   54  A    between atoms: _129  and  _130
REMARK   55  A    between atoms: _133  and  _135
REMARK   56  A    between atoms: _135  and  _136
REMARK   57  A    between atoms: _135  and  _138
REMARK   58  A    between atoms: _138  and  _139
REMARK   59  A    between atoms: _139  and  _140
REMARK   60  A    between atoms: _145  and  _147
REMARK   61  A    between atoms: _147  and  _148
REMARK   62  A    between atoms: _147  and  _150
REMARK   63  A    between atoms: _150  and  _151
REMARK   64  A    between atoms: _156  and  _157
REMARK   65  A    between atoms: _159  and  _161
REMARK   66  A    between atoms: _161  and  _162
REMARK   67  A    between atoms: _161  and  _164
REMARK   68  A    between atoms: _164  and  _165
REMARK   69  A    between atoms: _165  and  _166
REMARK   70  A    between atoms: _168  and  _170
REMARK   71  A    between atoms: _170  and  _171
REMARK   72  A    between atoms: _170  and  _173
REMARK   73  A    between atoms: _173  and  _174
REMARK   74  A    between atoms: _177  and  _179
REMARK   75  A    between atoms: _179  and  _180
REMARK   76  A    between atoms: _179  and  _182
REMARK   77  A    between atoms: _182  and  _183
REMARK   78  A    between atoms: _186  and  _188
REMARK   79  A    between atoms: _188  and  _189
REMARK   80  A    between atoms: _188  and  _191
REMARK   81  A    between atoms: _191  and  _192
REMARK   82  A    between atoms: _195  and  _197
REMARK   83  A    between atoms: _197  and  _198
REMARK   84  A    between atoms: _197  and  _200
REMARK   85  A    between atoms: _200  and  _201
REMARK   86  A    between atoms: _204  and  _206
REMARK   87  A    between atoms: _206  and  _207
REMARK   88  A    between atoms: _206  and  _209
REMARK   89  A    between atoms: _209  and  _210
REMARK   90  A    between atoms: _217  and  _218
REMARK   91  A    between atoms: _223  and  _225
REMARK   92  A    between atoms: _225  and  _226
REMARK   93  A    between atoms: _225  and  _228
REMARK   94  A    between atoms: _228  and  _229
REMARK   95  A    between atoms: _234  and  _236
REMARK   96  A    between atoms: _236  and  _237
REMARK   97  A    between atoms: _236  and  _239
REMARK   98  A    between atoms: _239  and  _240
REMARK   99  A    between atoms: _242  and  _244
REMARK  100  A    between atoms: _244  and  _245
REMARK  101  A    between atoms: _244  and  _247
REMARK  102  A    between atoms: _247  and  _248
REMARK  103  A    between atoms: _248  and  _249
REMARK  104  A    between atoms: _254  and  _256
REMARK  105  A    between atoms: _256  and  _257
REMARK  106  A    between atoms: _256  and  _259
REMARK  107  A    between atoms: _259  and  _260
REMARK  108  A    between atoms: _262  and  _264
REMARK  109  A    between atoms: _264  and  _265
REMARK  110  A    between atoms: _267  and  _269
REMARK  111  A    between atoms: _269  and  _270
REMARK  112  A    between atoms: _269  and  _272
REMARK  113  A    between atoms: _272  and  _273
REMARK  114  A    between atoms: _276  and  _278
REMARK  115  A    between atoms: _278  and  _279
REMARK  116  A    between atoms: _278  and  _281
REMARK  117  A    between atoms: _281  and  _282
REMARK  118  A    between atoms: _287  and  _289
REMARK  119  A    between atoms: _289  and  _290
REMARK  120  A    between atoms: _289  and  _292
REMARK  121  A    between atoms: _292  and  _293
REMARK  122  A    between atoms: _296  and  _298
REMARK  123  A    between atoms: _298  and  _299
REMARK  124  A    between atoms: _302  and  _304
REMARK  125  A    between atoms: _304  and  _305
REMARK  126  A    between atoms: _304  and  _307
REMARK  127  A    between atoms: _307  and  _308
REMARK  128  A    between atoms: _313  and  _314
REMARK  129  A    between atoms: _316  and  _318
REMARK  130  A    between atoms: _318  and  _319
REMARK  131  A    between atoms: _318  and  _321
REMARK  132  A    between atoms: _321  and  _322
REMARK  133  A    between atoms: _327  and  _328
REMARK  134  A    between atoms: _330  and  _332
REMARK  135  A    between atoms: _332  and  _333
REMARK  136  A    between atoms: _332  and  _335
REMARK  137  A    between atoms: _335  and  _336
REMARK  138  A    between atoms: _336  and  _337
REMARK  139  A    between atoms: _342  and  _344
REMARK  140  A    between atoms: _344  and  _345
REMARK  141  A    between atoms: _344  and  _347
REMARK  142  A    between atoms: _350  and  _352
REMARK  143  A    between atoms: _352  and  _353
REMARK  144  A    between atoms: _352  and  _355
REMARK  145  A    between atoms: _358  and  _360
REMARK  146  A    between atoms: _360  and  _361
REMARK  147  A    between atoms: _360  and  _363
REMARK  148  A    between atoms: _363  and  _364
REMARK  149  A    between atoms: _364  and  _365
REMARK  150  A    between atoms: _365  and  _366
REMARK  151  A    between atoms: _375  and  _377
REMARK  152  A    between atoms: _377  and  _378
REMARK  153  A    between atoms: _381  and  _383
REMARK  154  A    between atoms: _383  and  _384
REMARK  155  A    between atoms: _383  and  _386
REMARK  156  A    between atoms: _386  and  _387
REMARK  157  A    between atoms: _389  and  _391
REMARK  158  A    between atoms: _391  and  _392
REMARK  159  A    between atoms: _391  and  _394
REMARK  160  A    between atoms: _394  and  _395
REMARK  161  A    between atoms: _400  and  _402
REMARK  162  A    between atoms: _402  and  _403
REMARK  163  A    between atoms: _402  and  _405
REMARK  164  A    between atoms: _405  and  _406
REMARK  165  A    between atoms: _416  and  _418
REMARK  166  A    between atoms: _418  and  _419
REMARK  167  A    between atoms: _418  and  _421
REMARK  168  A    between atoms: _421  and  _422
REMARK  169  A    between atoms: _425  and  _427
REMARK  170  A    between atoms: _427  and  _428
REMARK  171  A    between atoms: _427  and  _430
REMARK  172  A    between atoms: _430  and  _431
REMARK  173  A    between atoms: _436  and  _437
REMARK  174  A    between atoms: _439  and  _441
REMARK  175  A    between atoms: _441  and  _442
REMARK  176  A    between atoms: _444  and  _446
REMARK  177  A    between atoms: _446  and  _447
REMARK  178  A    between atoms: _446  and  _449
REMARK  179  A    between atoms: _449  and  _450
REMARK  180  A    between atoms: _460  and  _462
REMARK  181  A    between atoms: _462  and  _463
REMARK  182  A    between atoms: _462  and  _465
REMARK  183  A    between atoms: _465  and  _466
REMARK  184  A    between atoms: _468  and  _470
REMARK  185  A    between atoms: _470  and  _471
REMARK  186  A    between atoms: _473  and  _475
REMARK  187  A    between atoms: _475  and  _476
REMARK  188  A    between atoms: _475  and  _478
REMARK  189  A    between atoms: _478  and  _479
REMARK  190  A    between atoms: _482  and  _484
REMARK  191  A    between atoms: _484  and  _485
REMARK  192  A    between atoms: _484  and  _487
REMARK  193  A    between atoms: _487  and  _488
REMARK  194  A    between atoms: _493  and  _495
REMARK  195  A    between atoms: _495  and  _496
REMARK  196  A    between atoms: _495  and  _498
REMARK  197  A    between atoms: _498  and  _499
REMARK  198  A    between atoms: _504  and  _506
REMARK  199  A    between atoms: _506  and  _507
REMARK  200  A    between atoms: _506  and  _509
REMARK  201  A    between atoms: _509  and  _510
REMARK  202  A    between atoms: _517  and  _518
REMARK  203  A    between atoms: _523  and  _525
REMARK  204  A    between atoms: _525  and  _526
REMARK  205  A    between atoms: _525  and  _528
REMARK  206  A    between atoms: _528  and  _529
REMARK  207  A    between atoms: _532  and  _534
REMARK  208  A    between atoms: _534  and  _535
REMARK  209  A    between atoms: _534  and  _537
REMARK  210  A    between atoms: _537  and  _538
REMARK  211  A    between atoms: _540  and  _542
REMARK  212  A    between atoms: _542  and  _543
REMARK  213  A    between atoms: _542  and  _545
REMARK  214  A    between atoms: _545  and  _546
REMARK  215  A    between atoms: _551  and  _552
REMARK  216  A    between atoms: _554  and  _556
REMARK  217  A    between atoms: _556  and  _557
REMARK  218  A    between atoms: _556  and  _559
REMARK  219  A    between atoms: _559  and  _560
REMARK  220  A    between atoms: _562  and  _564
REMARK  221  A    between atoms: _564  and  _565
REMARK  222  A    between atoms: _564  and  _567
REMARK  223  A    between atoms: _567  and  _568
REMARK  224  A    between atoms: _571  and  _573
REMARK  225  A    between atoms: _573  and  _574
REMARK  226  A    between atoms: _573  and  _576
REMARK  227  A    between atoms: _576  and  _577
REMARK  228  A    between atoms: _582  and  _584
REMARK  229  A    between atoms: _584  and  _585
REMARK  230  A    between atoms: _584  and  _587
REMARK  231  A    between atoms: _587  and  _588
REMARK  232  A    between atoms: _594  and  _596
REMARK  233  A    between atoms: _596  and  _597
REMARK  234  A    between atoms: _601  and  _602
REMARK  235  A    between atoms: _607  and  _609
REMARK  236  A    between atoms: _609  and  _610
REMARK  237  A    between atoms: _609  and  _612
REMARK  238  A    between atoms: _612  and  _613
REMARK  239  A    between atoms: _618  and  _619
REMARK  240  A    between atoms: _621  and  _623
REMARK  241  A    between atoms: _623  and  _624
REMARK  242  A    between atoms: _623  and  _626
REMARK  243  A    between atoms: _626  and  _627
REMARK  244  A    between atoms: _627  and  _628
REMARK  245  A    between atoms: _628  and  _629
REMARK  246  A    between atoms: _629  and  _630
REMARK  247  A    between atoms: _634  and  _636
REMARK  248  A    between atoms: _636  and  _637
REMARK  249  A    between atoms: _636  and  _639
REMARK  250  A    between atoms: _639  and  _640
REMARK  251  A    between atoms: _640  and  _641
REMARK  252  A    between atoms: _646  and  _648
REMARK  253  A    between atoms: _648  and  _649
REMARK  254  A    between atoms: _648  and  _651
REMARK  255  A    between atoms: _651  and  _652
REMARK  256  A    between atoms: _655  and  _656
REMARK  257  A    between atoms: _661  and  _663
REMARK  258  A    between atoms: _663  and  _664
REMARK  259  A    between atoms: _663  and  _666
REMARK  260  A    between atoms: _666  and  _667
REMARK  261  A    between atoms: _673  and  _675
REMARK  262  A    between atoms: _675  and  _676
REMARK  263  A    between atoms: _678  and  _680
REMARK  264  A    between atoms: _680  and  _681
REMARK  265  A    between atoms: _680  and  _683
REMARK  266  A    between atoms: _683  and  _684
REMARK  267  A    between atoms: _689  and  _690
REMARK  268  A    between atoms: _692  and  _694
REMARK  269  A    between atoms: _694  and  _695
REMARK  270  A    between atoms: _694  and  _697
REMARK  271  A    between atoms: _697  and  _698
REMARK  272  A    between atoms: _701  and  _703
REMARK  273  A    between atoms: _703  and  _704
REMARK  274  A    between atoms: _703  and  _706
REMARK  275  A    between atoms: _706  and  _707
REMARK  276  A    between atoms: _712  and  _713
REMARK                            x       y       z     vdW  Elec       q    Type
REMARK                         _______ _______ _______ _____ _____    ______ ____
ROOT
ATOM      1  O   HOH     1      11.518 -14.430  -8.571  0.00  0.00    +0.000 OA
ENDROOT
TORSDOF 0
REMARK  Name = ../refined-set-2016/3m8u/3m8u_pocket.pdb
REMARK  276 active torsions:
REMARK  status: ('A' for Active; 'I' for Inactive)
REMARK    1  A    between atoms: _1  and  _3
REMARK    2  A    between atoms: _3  and  _4
REMARK    3  A    between atoms: _3  and  _6
REMARK    4  A    between atoms: _6  and  _7
REMARK    5  A    between atoms: _12  and  _14
REMARK    6  A    between atoms: _14  and  _15
REMARK    7  A    between atoms: _14  and  _17
REMARK    8  A    between atoms: _20  and  _22
REMARK    9  A    between atoms: _22  and  _23
REMARK   10  A    between atoms: _22  and  _25
REMARK   11  A    between atoms: _25  and  _26
REMARK   12  A    between atoms: _28  and  _30
REMARK   13  A    between atoms: _30  and  _31
REMARK   14  A    between atoms: _30  and  _33
REMARK   15  A    between atoms: _33  and  _34
REMARK   16  A    between atoms: _34  and  _35
REMARK   17  A    between atoms: _35  and  _36
REMARK   18  A    between atoms: _45  and  _47
REMARK   19  A    between atoms: _47  and  _48
REMARK   20  A    between atoms: _47  and  _50
REMARK   21  A    between atoms: _50  and  _51
REMARK   22  A    between atoms: _54  and  _56
REMARK   23  A    between atoms: _56  and  _57
REMARK   24  A    between atoms: _56  and  _59
REMARK   25  A    between atoms: _62  and  _64
REMARK   26  A    between atoms: _64  and  _65
REMARK   27  A    between atoms: _64  and  _67
REMARK   28  A    between atoms: _67  and  _68
REMARK   29  A    between atoms: _68  and  _69
REMARK   30  A    between atoms: _71  and  _73
REMARK   31  A    between atoms: _73  and  _74
REMARK   32  A    between atoms: _73  and  _76
REMARK   33  A    between atoms: _76  and  _77
REMARK   34  A    between atoms: _80  and  _82
REMARK   35  A    between atoms: _82  and  _83
REMARK   36  A    between atoms: _85  and  _87
REMARK   37  A    between atoms: _87  and  _88
REMARK   38  A    between atoms: _87  and  _90
REMARK   39  A    between atoms: _90  and  _91
REMARK   40  A    between atoms: _94  and  _96
REMARK   41  A    between atoms: _96  and  _97
REMARK   42  A    between atoms: _96  and  _99
REMARK   43  A    between atoms: _99  and  _100
REMARK   44  A    between atoms: _102  and  _104
REMARK   45  A    between atoms: _104  and  _105
REMARK   46  A    between atoms: _104  and  _107
REMARK   47  A    between atoms: _107  and  _108
REMARK   48  A    between atoms: _113  and  _114
REMARK   49  A    between atoms: _116  and  _118
REMARK   50  A    between atoms: _118  and  _119
REMARK   51  A    between atoms: _118  and  _121
REMARK   52  A    between atoms: _121  and  _122
REMARK   53  A    between atoms: _127  and  _129
REMARK   54  A    between atoms: _129  and  _130
REMARK   55  A    between atoms: _133  and  _135
REMARK   56  A    between atoms: _135  and  _136
REMARK   57  A    between atoms: _135  and  _138
REMARK   58  A    between atoms: _138  and  _139
REMARK   59  A    between atoms: _139  and  _140
REMARK   60  A    between atoms: _145  and  _147
REMARK   61  A    between atoms: _147  and  _148
REMARK   62  A    between atoms: _147  and  _150
REMARK   63  A    between atoms: _150  and  _151
REMARK   64  A    between atoms: _156  and  _157
REMARK   65  A    between atoms: _159  and  _161
REMARK   66  A    between atoms: _161  and  _162
REMARK   67  A    between atoms: _161  and  _164
REMARK   68  A    between atoms: _164  and  _165
REMARK   69  A    between atoms: _165  and  _166
REMARK   70  A    between atoms: _168  and  _170
REMARK   71  A    between atoms: _170  and  _171
REMARK   72  A    between atoms: _170  and  _173
REMARK   73  A    between atoms: _173  and  _174
REMARK   74  A    between atoms: _177  and  _179
REMARK   75  A    between atoms: _179  and  _180
REMARK   76  A    between atoms: _179  and  _182
REMARK   77  A    between atoms: _182  and  _183
REMARK   78  A    between atoms: _186  and  _188
REMARK   79  A    between atoms: _188  and  _189
REMARK   80  A    between atoms: _188  and  _191
REMARK   81  A    between atoms: _191  and  _192
REMARK   82  A    between atoms: _195  and  _197
REMARK   83  A    between atoms: _197  and  _198
REMARK   84  A    between atoms: _197  and  _200
REMARK   85  A    between atoms: _200  and  _201
REMARK   86  A    between atoms: _204  and  _206
REMARK   87  A    between atoms: _206  and  _207
REMARK   88  A    between atoms: _206  and  _209
REMARK   89  A    between atoms: _209  and  _210
REMARK   90  A    between atoms: _217  and  _218
REMARK   91  A    between atoms: _223  and  _225
REMARK   92  A    between atoms: _225  and  _226
REMARK   93  A    between atoms: _225  and  _228
REMARK   94  A    between atoms: _228  and  _229
REMARK   95  A    between atoms: _234  and  _236
REMARK   96  A    between atoms: _236  and  _237
REMARK   97  A    between atoms: _236  and  _239
REMARK   98  A    between atoms: _239  and  _240
REMARK   99  A    between atoms: _242  and  _244
REMARK  100  A    between atoms: _244  and  _245
REMARK  101  A    between atoms: _244  and  _247
REMARK  102  A    between atoms: _247  and  _248
REMARK  103  A    between atoms: _248  and  _249
REMARK  104  A    between atoms: _254  and  _256
REMARK  105  A    between atoms: _256  and  _257
REMARK  106  A    between atoms: _256  and  _259
REMARK  107  A    between atoms: _259  and  _260
REMARK  108  A    between atoms: _262  and  _264
REMARK  109  A    between atoms: _264  and  _265
REMARK  110  A    between atoms: _267  and  _269
REMARK  111  A    between atoms: _269  and  _270
REMARK  112  A    between atoms: _269  and  _272
REMARK  113  A    between atoms: _272  and  _273
REMARK  114  A    between atoms: _276  and  _278
REMARK  115  A    between atoms: _278  and  _279
REMARK  116  A    between atoms: _278  and  _281
REMARK  117  A    between atoms: _281  and  _282
REMARK  118  A    between atoms: _287  and  _289
REMARK  119  A    between atoms: _289  and  _290
REMARK  120  A    between atoms: _289  and  _292
REMARK  121  A    between atoms: _292  and  _293
REMARK  122  A    between atoms: _296  and  _298
REMARK  123  A    between atoms: _298  and  _299
REMARK  124  A    between atoms: _302  and  _304
REMARK  125  A    between atoms: _304  and  _305
REMARK  126  A    between atoms: _304  and  _307
REMARK  127  A    between atoms: _307  and  _308
REMARK  128  A    between atoms: _313  and  _314
REMARK  129  A    between atoms: _316  and  _318
REMARK  130  A    between atoms: _318  and  _319
REMARK  131  A    between atoms: _318  and  _321
REMARK  132  A    between atoms: _321  and  _322
REMARK  133  A    between atoms: _327  and  _328
REMARK  134  A    between atoms: _330  and  _332
REMARK  135  A    between atoms: _332  and  _333
REMARK  136  A    between atoms: _332  and  _335
REMARK  137  A    between atoms: _335  and  _336
REMARK  138  A    between atoms: _336  and  _337
REMARK  139  A    between atoms: _342  and  _344
REMARK  140  A    between atoms: _344  and  _345
REMARK  141  A    between atoms: _344  and  _347
REMARK  142  A    between atoms: _350  and  _352
REMARK  143  A    between atoms: _352  and  _353
REMARK  144  A    between atoms: _352  and  _355
REMARK  145  A    between atoms: _358  and  _360
REMARK  146  A    between atoms: _360  and  _361
REMARK  147  A    between atoms: _360  and  _363
REMARK  148  A    between atoms: _363  and  _364
REMARK  149  A    between atoms: _364  and  _365
REMARK  150  A    between atoms: _365  and  _366
REMARK  151  A    between atoms: _375  and  _377
REMARK  152  A    between atoms: _377  and  _378
REMARK  153  A    between atoms: _381  and  _383
REMARK  154  A    between atoms: _383  and  _384
REMARK  155  A    between atoms: _383  and  _386
REMARK  156  A    between atoms: _386  and  _387
REMARK  157  A    between atoms: _389  and  _391
REMARK  158  A    between atoms: _391  and  _392
REMARK  159  A    between atoms: _391  and  _394
REMARK  160  A    between atoms: _394  and  _395
REMARK  161  A    between atoms: _400  and  _402
REMARK  162  A    between atoms: _402  and  _403
REMARK  163  A    between atoms: _402  and  _405
REMARK  164  A    between atoms: _405  and  _406
REMARK  165  A    between atoms: _416  and  _418
REMARK  166  A    between atoms: _418  and  _419
REMARK  167  A    between atoms: _418  and  _421
REMARK  168  A    between atoms: _421  and  _422
REMARK  169  A    between atoms: _425  and  _427
REMARK  170  A    between atoms: _427  and  _428
REMARK  171  A    between atoms: _427  and  _430
REMARK  172  A    between atoms: _430  and  _431
REMARK  173  A    between atoms: _436  and  _437
REMARK  174  A    between atoms: _439  and  _441
REMARK  175  A    between atoms: _441  and  _442
REMARK  176  A    between atoms: _444  and  _446
REMARK  177  A    between atoms: _446  and  _447
REMARK  178  A    between atoms: _446  and  _449
REMARK  179  A    between atoms: _449  and  _450
REMARK  180  A    between atoms: _460  and  _462
REMARK  181  A    between atoms: _462  and  _463
REMARK  182  A    between atoms: _462  and  _465
REMARK  183  A    between atoms: _465  and  _466
REMARK  184  A    between atoms: _468  and  _470
REMARK  185  A    between atoms: _470  and  _471
REMARK  186  A    between atoms: _473  and  _475
REMARK  187  A    between atoms: _475  and  _476
REMARK  188  A    between atoms: _475  and  _478
REMARK  189  A    between atoms: _478  and  _479
REMARK  190  A    between atoms: _482  and  _484
REMARK  191  A    between atoms: _484  and  _485
REMARK  192  A    between atoms: _484  and  _487
REMARK  193  A    between atoms: _487  and  _488
REMARK  194  A    between atoms: _493  and  _495
REMARK  195  A    between atoms: _495  and  _496
REMARK  196  A    between atoms: _495  and  _498
REMARK  197  A    between atoms: _498  and  _499
REMARK  198  A    between atoms: _504  and  _506
REMARK  199  A    between atoms: _506  and  _507
REMARK  200  A    between atoms: _506  and  _509
REMARK  201  A    between atoms: _509  and  _510
REMARK  202  A    between atoms: _517  and  _518
REMARK  203  A    between atoms: _523  and  _525
REMARK  204  A    between atoms: _525  and  _526
REMARK  205  A    between atoms: _525  and  _528
REMARK  206  A    between atoms: _528  and  _529
REMARK  207  A    between atoms: _532  and  _534
REMARK  208  A    between atoms: _534  and  _535
REMARK  209  A    between atoms: _534  and  _537
REMARK  210  A    between atoms: _537  and  _538
REMARK  211  A    between atoms: _540  and  _542
REMARK  212  A    between atoms: _542  and  _543
REMARK  213  A    between atoms: _542  and  _545
REMARK  214  A    between atoms: _545  and  _546
REMARK  215  A    between atoms: _551  and  _552
REMARK  216  A    between atoms: _554  and  _556
REMARK  217  A    between atoms: _556  and  _557
REMARK  218  A    between atoms: _556  and  _559
REMARK  219  A    between atoms: _559  and  _560
REMARK  220  A    between atoms: _562  and  _564
REMARK  221  A    between atoms: _564  and  _565
REMARK  222  A    between atoms: _564  and  _567
REMARK  223  A    between atoms: _567  and  _568
REMARK  224  A    between atoms: _571  and  _573
REMARK  225  A    between atoms: _573  and  _574
REMARK  226  A    between atoms: _573  and  _576
REMARK  227  A    between atoms: _576  and  _577
REMARK  228  A    between atoms: _582  and  _584
REMARK  229  A    between atoms: _584  and  _585
REMARK  230  A    between atoms: _584  and  _587
REMARK  231  A    between atoms: _587  and  _588
REMARK  232  A    between atoms: _594  and  _596
REMARK  233  A    between atoms: _596  and  _597
REMARK  234  A    between atoms: _601  and  _602
REMARK  235  A    between atoms: _607  and  _609
REMARK  236  A    between atoms: _609  and  _610
REMARK  237  A    between atoms: _609  and  _612
REMARK  238  A    between atoms: _612  and  _613
REMARK  239  A    between atoms: _618  and  _619
REMARK  240  A    between atoms: _621  and  _623
REMARK  241  A    between atoms: _623  and  _624
REMARK  242  A    between atoms: _623  and  _626
REMARK  243  A    between atoms: _626  and  _627
REMARK  244  A    between atoms: _627  and  _628
REMARK  245  A    between atoms: _628  and  _629
REMARK  246  A    between atoms: _629  and  _630
REMARK  247  A    between atoms: _634  and  _636
REMARK  248  A    between atoms: _636  and  _637
REMARK  249  A    between atoms: _636  and  _639
REMARK  250  A    between atoms: _639  and  _640
REMARK  251  A    between atoms: _640  and  _641
REMARK  252  A    between atoms: _646  and  _648
REMARK  253  A    between atoms: _648  and  _649
REMARK  254  A    between atoms: _648  and  _651
REMARK  255  A    between atoms: _651  and  _652
REMARK  256  A    between atoms: _655  and  _656
REMARK  257  A    between atoms: _661  and  _663
REMARK  258  A    between atoms: _663  and  _664
REMARK  259  A    between atoms: _663  and  _666
REMARK  260  A    between atoms: _666  and  _667
REMARK  261  A    between atoms: _673  and  _675
REMARK  262  A    between atoms: _675  and  _676
REMARK  263  A    between atoms: _678  and  _680
REMARK  264  A    between atoms: _680  and  _681
REMARK  265  A    between atoms: _680  and  _683
REMARK  266  A    between atoms: _683  and  _684
REMARK  267  A    between atoms: _689  and  _690
REMARK  268  A    between atoms: _692  and  _694
REMARK  269  A    between atoms: _694  and  _695
REMARK  270  A    between atoms: _694  and  _697
REMARK  271  A    between atoms: _697  and  _698
REMARK  272  A    between atoms: _701  and  _703
REMARK  273  A    between atoms: _703  and  _704
REMARK  274  A    between atoms: _703  and  _706
REMARK  275  A    between atoms: _706  and  _707
REMARK  276  A    between atoms: _712  and  _713
REMARK                            x       y       z     vdW  Elec       q    Type
REMARK                         _______ _______ _______ _____ _____    ______ ____
ROOT
ATOM      1  O   HOH     1      11.608 -19.011 -23.109  0.00  0.00    +0.000 OA
ENDROOT
TORSDOF 0
REMARK  Name = ../refined-set-2016/3m8u/3m8u_pocket.pdb
REMARK  276 active torsions:
REMARK  status: ('A' for Active; 'I' for Inactive)
REMARK    1  A    between atoms: _1  and  _3
REMARK    2  A    between atoms: _3  and  _4
REMARK    3  A    between atoms: _3  and  _6
REMARK    4  A    between atoms: _6  and  _7
REMARK    5  A    between atoms: _12  and  _14
REMARK    6  A    between atoms: _14  and  _15
REMARK    7  A    between atoms: _14  and  _17
REMARK    8  A    between atoms: _20  and  _22
REMARK    9  A    between atoms: _22  and  _23
REMARK   10  A    between atoms: _22  and  _25
REMARK   11  A    between atoms: _25  and  _26
REMARK   12  A    between atoms: _28  and  _30
REMARK   13  A    between atoms: _30  and  _31
REMARK   14  A    between atoms: _30  and  _33
REMARK   15  A    between atoms: _33  and  _34
REMARK   16  A    between atoms: _34  and  _35
REMARK   17  A    between atoms: _35  and  _36
REMARK   18  A    between atoms: _45  and  _47
REMARK   19  A    between atoms: _47  and  _48
REMARK   20  A    between atoms: _47  and  _50
REMARK   21  A    between atoms: _50  and  _51
REMARK   22  A    between atoms: _54  and  _56
REMARK   23  A    between atoms: _56  and  _57
REMARK   24  A    between atoms: _56  and  _59
REMARK   25  A    between atoms: _62  and  _64
REMARK   26  A    between atoms: _64  and  _65
REMARK   27  A    between atoms: _64  and  _67
REMARK   28  A    between atoms: _67  and  _68
REMARK   29  A    between atoms: _68  and  _69
REMARK   30  A    between atoms: _71  and  _73
REMARK   31  A    between atoms: _73  and  _74
REMARK   32  A    between atoms: _73  and  _76
REMARK   33  A    between atoms: _76  and  _77
REMARK   34  A    between atoms: _80  and  _82
REMARK   35  A    between atoms: _82  and  _83
REMARK   36  A    between atoms: _85  and  _87
REMARK   37  A    between atoms: _87  and  _88
REMARK   38  A    between atoms: _87  and  _90
REMARK   39  A    between atoms: _90  and  _91
REMARK   40  A    between atoms: _94  and  _96
REMARK   41  A    between atoms: _96  and  _97
REMARK   42  A    between atoms: _96  and  _99
REMARK   43  A    between atoms: _99  and  _100
REMARK   44  A    between atoms: _102  and  _104
REMARK   45  A    between atoms: _104  and  _105
REMARK   46  A    between atoms: _104  and  _107
REMARK   47  A    between atoms: _107  and  _108
REMARK   48  A    between atoms: _113  and  _114
REMARK   49  A    between atoms: _116  and  _118
REMARK   50  A    between atoms: _118  and  _119
REMARK   51  A    between atoms: _118  and  _121
REMARK   52  A    between atoms: _121  and  _122
REMARK   53  A    between atoms: _127  and  _129
REMARK   54  A    between atoms: _129  and  _130
REMARK   55  A    between atoms: _133  and  _135
REMARK   56  A    between atoms: _135  and  _136
REMARK   57  A    between atoms: _135  and  _138
REMARK   58  A    between atoms: _138  and  _139
REMARK   59  A    between atoms: _139  and  _140
REMARK   60  A    between atoms: _145  and  _147
REMARK   61  A    between atoms: _147  and  _148
REMARK   62  A    between atoms: _147  and  _150
REMARK   63  A    between atoms: _150  and  _151
REMARK   64  A    between atoms: _156  and  _157
REMARK   65  A    between atoms: _159  and  _161
REMARK   66  A    between atoms: _161  and  _162
REMARK   67  A    between atoms: _161  and  _164
REMARK   68  A    between atoms: _164  and  _165
REMARK   69  A    between atoms: _165  and  _166
REMARK   70  A    between atoms: _168  and  _170
REMARK   71  A    between atoms: _170  and  _171
REMARK   72  A    between atoms: _170  and  _173
REMARK   73  A    between atoms: _173  and  _174
REMARK   74  A    between atoms: _177  and  _179
REMARK   75  A    between atoms: _179  and  _180
REMARK   76  A    between atoms: _179  and  _182
REMARK   77  A    between atoms: _182  and  _183
REMARK   78  A    between atoms: _186  and  _188
REMARK   79  A    between atoms: _188  and  _189
REMARK   80  A    between atoms: _188  and  _191
REMARK   81  A    between atoms: _191  and  _192
REMARK   82  A    between atoms: _195  and  _197
REMARK   83  A    between atoms: _197  and  _198
REMARK   84  A    between atoms: _197  and  _200
REMARK   85  A    between atoms: _200  and  _201
REMARK   86  A    between atoms: _204  and  _206
REMARK   87  A    between atoms: _206  and  _207
REMARK   88  A    between atoms: _206  and  _209
REMARK   89  A    between atoms: _209  and  _210
REMARK   90  A    between atoms: _217  and  _218
REMARK   91  A    between atoms: _223  and  _225
REMARK   92  A    between atoms: _225  and  _226
REMARK   93  A    between atoms: _225  and  _228
REMARK   94  A    between atoms: _228  and  _229
REMARK   95  A    between atoms: _234  and  _236
REMARK   96  A    between atoms: _236  and  _237
REMARK   97  A    between atoms: _236  and  _239
REMARK   98  A    between atoms: _239  and  _240
REMARK   99  A    between atoms: _242  and  _244
REMARK  100  A    between atoms: _244  and  _245
REMARK  101  A    between atoms: _244  and  _247
REMARK  102  A    between atoms: _247  and  _248
REMARK  103  A    between atoms: _248  and  _249
REMARK  104  A    between atoms: _254  and  _256
REMARK  105  A    between atoms: _256  and  _257
REMARK  106  A    between atoms: _256  and  _259
REMARK  107  A    between atoms: _259  and  _260
REMARK  108  A    between atoms: _262  and  _264
REMARK  109  A    between atoms: _264  and  _265
REMARK  110  A    between atoms: _267  and  _269
REMARK  111  A    between atoms: _269  and  _270
REMARK  112  A    between atoms: _269  and  _272
REMARK  113  A    between atoms: _272  and  _273
REMARK  114  A    between atoms: _276  and  _278
REMARK  115  A    between atoms: _278  and  _279
REMARK  116  A    between atoms: _278  and  _281
REMARK  117  A    between atoms: _281  and  _282
REMARK  118  A    between atoms: _287  and  _289
REMARK  119  A    between atoms: _289  and  _290
REMARK  120  A    between atoms: _289  and  _292
REMARK  121  A    between atoms: _292  and  _293
REMARK  122  A    between atoms: _296  and  _298
REMARK  123  A    between atoms: _298  and  _299
REMARK  124  A    between atoms: _302  and  _304
REMARK  125  A    between atoms: _304  and  _305
REMARK  126  A    between atoms: _304  and  _307
REMARK  127  A    between atoms: _307  and  _308
REMARK  128  A    between atoms: _313  and  _314
REMARK  129  A    between atoms: _316  and  _318
REMARK  130  A    between atoms: _318  and  _319
REMARK  131  A    between atoms: _318  and  _321
REMARK  132  A    between atoms: _321  and  _322
REMARK  133  A    between atoms: _327  and  _328
REMARK  134  A    between atoms: _330  and  _332
REMARK  135  A    between atoms: _332  and  _333
REMARK  136  A    between atoms: _332  and  _335
REMARK  137  A    between atoms: _335  and  _336
REMARK  138  A    between atoms: _336  and  _337
REMARK  139  A    between atoms: _342  and  _344
REMARK  140  A    between atoms: _344  and  _345
REMARK  141  A    between atoms: _344  and  _347
REMARK  142  A    between atoms: _350  and  _352
REMARK  143  A    between atoms: _352  and  _353
REMARK  144  A    between atoms: _352  and  _355
REMARK  145  A    between atoms: _358  and  _360
REMARK  146  A    between atoms: _360  and  _361
REMARK  147  A    between atoms: _360  and  _363
REMARK  148  A    between atoms: _363  and  _364
REMARK  149  A    between atoms: _364  and  _365
REMARK  150  A    between atoms: _365  and  _366
REMARK  151  A    between atoms: _375  and  _377
REMARK  152  A    between atoms: _377  and  _378
REMARK  153  A    between atoms: _381  and  _383
REMARK  154  A    between atoms: _383  and  _384
REMARK  155  A    between atoms: _383  and  _386
REMARK  156  A    between atoms: _386  and  _387
REMARK  157  A    between atoms: _389  and  _391
REMARK  158  A    between atoms: _391  and  _392
REMARK  159  A    between atoms: _391  and  _394
REMARK  160  A    between atoms: _394  and  _395
REMARK  161  A    between atoms: _400  and  _402
REMARK  162  A    between atoms: _402  and  _403
REMARK  163  A    between atoms: _402  and  _405
REMARK  164  A    between atoms: _405  and  _406
REMARK  165  A    between atoms: _416  and  _418
REMARK  166  A    between atoms: _418  and  _419
REMARK  167  A    between atoms: _418  and  _421
REMARK  168  A    between atoms: _421  and  _422
REMARK  169  A    between atoms: _425  and  _427
REMARK  170  A    between atoms: _427  and  _428
REMARK  171  A    between atoms: _427  and  _430
REMARK  172  A    between atoms: _430  and  _431
REMARK  173  A    between atoms: _436  and  _437
REMARK  174  A    between atoms: _439  and  _441
REMARK  175  A    between atoms: _441  and  _442
REMARK  176  A    between atoms: _444  and  _446
REMARK  177  A    between atoms: _446  and  _447
REMARK  178  A    between atoms: _446  and  _449
REMARK  179  A    between atoms: _449  and  _450
REMARK  180  A    between atoms: _460  and  _462
REMARK  181  A    between atoms: _462  and  _463
REMARK  182  A    between atoms: _462  and  _465
REMARK  183  A    between atoms: _465  and  _466
REMARK  184  A    between atoms: _468  and  _470
REMARK  185  A    between atoms: _470  and  _471
REMARK  186  A    between atoms: _473  and  _475
REMARK  187  A    between atoms: _475  and  _476
REMARK  188  A    between atoms: _475  and  _478
REMARK  189  A    between atoms: _478  and  _479
REMARK  190  A    between atoms: _482  and  _484
REMARK  191  A    between atoms: _484  and  _485
REMARK  192  A    between atoms: _484  and  _487
REMARK  193  A    between atoms: _487  and  _488
REMARK  194  A    between atoms: _493  and  _495
REMARK  195  A    between atoms: _495  and  _496
REMARK  196  A    between atoms: _495  and  _498
REMARK  197  A    between atoms: _498  and  _499
REMARK  198  A    between atoms: _504  and  _506
REMARK  199  A    between atoms: _506  and  _507
REMARK  200  A    between atoms: _506  and  _509
REMARK  201  A    between atoms: _509  and  _510
REMARK  202  A    between atoms: _517  and  _518
REMARK  203  A    between atoms: _523  and  _525
REMARK  204  A    between atoms: _525  and  _526
REMARK  205  A    between atoms: _525  and  _528
REMARK  206  A    between atoms: _528  and  _529
REMARK  207  A    between atoms: _532  and  _534
REMARK  208  A    between atoms: _534  and  _535
REMARK  209  A    between atoms: _534  and  _537
REMARK  210  A    between atoms: _537  and  _538
REMARK  211  A    between atoms: _540  and  _542
REMARK  212  A    between atoms: _542  and  _543
REMARK  213  A    between atoms: _542  and  _545
REMARK  214  A    between atoms: _545  and  _546
REMARK  215  A    between atoms: _551  and  _552
REMARK  216  A    between atoms: _554  and  _556
REMARK  217  A    between atoms: _556  and  _557
REMARK  218  A    between atoms: _556  and  _559
REMARK  219  A    between atoms: _559  and  _560
REMARK  220  A    between atoms: _562  and  _564
REMARK  221  A    between atoms: _564  and  _565
REMARK  222  A    between atoms: _564  and  _567
REMARK  223  A    between atoms: _567  and  _568
REMARK  224  A    between atoms: _571  and  _573
REMARK  225  A    between atoms: _573  and  _574
REMARK  226  A    between atoms: _573  and  _576
REMARK  227  A    between atoms: _576  and  _577
REMARK  228  A    between atoms: _582  and  _584
REMARK  229  A    between atoms: _584  and  _585
REMARK  230  A    between atoms: _584  and  _587
REMARK  231  A    between atoms: _587  and  _588
REMARK  232  A    between atoms: _594  and  _596
REMARK  233  A    between atoms: _596  and  _597
REMARK  234  A    between atoms: _601  and  _602
REMARK  235  A    between atoms: _607  and  _609
REMARK  236  A    between atoms: _609  and  _610
REMARK  237  A    between atoms: _609  and  _612
REMARK  238  A    between atoms: _612  and  _613
REMARK  239  A    between atoms: _618  and  _619
REMARK  240  A    between atoms: _621  and  _623
REMARK  241  A    between atoms: _623  and  _624
REMARK  242  A    between atoms: _623  and  _626
REMARK  243  A    between atoms: _626  and  _627
REMARK  244  A    between atoms: _627  and  _628
REMARK  245  A    between atoms: _628  and  _629
REMARK  246  A    between atoms: _629  and  _630
REMARK  247  A    between atoms: _634  and  _636
REMARK  248  A    between atoms: _636  and  _637
REMARK  249  A    between atoms: _636  and  _639
REMARK  250  A    between atoms: _639  and  _640
REMARK  251  A    between atoms: _640  and  _641
REMARK  252  A    between atoms: _646  and  _648
REMARK  253  A    between atoms: _648  and  _649
REMARK  254  A    between atoms: _648  and  _651
REMARK  255  A    between atoms: _651  and  _652
REMARK  256  A    between atoms: _655  and  _656
REMARK  257  A    between atoms: _661  and  _663
REMARK  258  A    between atoms: _663  and  _664
REMARK  259  A    between atoms: _663  and  _666
REMARK  260  A    between atoms: _666  and  _667
REMARK  261  A    between atoms: _673  and  _675
REMARK  262  A    between atoms: _675  and  _676
REMARK  263  A    between atoms: _678  and  _680
REMARK  264  A    between atoms: _680  and  _681
REMARK  265  A    between atoms: _680  and  _683
REMARK  266  A    between atoms: _683  and  _684
REMARK  267  A    between atoms: _689  and  _690
REMARK  268  A    between atoms: _692  and  _694
REMARK  269  A    between atoms: _694  and  _695
REMARK  270  A    between atoms: _694  and  _697
REMARK  271  A    between atoms: _697  and  _698
REMARK  272  A    between atoms: _701  and  _703
REMARK  273  A    between atoms: _703  and  _704
REMARK  274  A    between atoms: _703  and  _706
REMARK  275  A    between atoms: _706  and  _707
REMARK  276  A    between atoms: _712  and  _713
REMARK                            x       y       z     vdW  Elec       q    Type
REMARK                         _______ _______ _______ _____ _____    ______ ____
ROOT
ATOM      1  O   HOH     1      14.149 -19.811 -22.620  0.00  0.00    +0.000 OA
ENDROOT
TORSDOF 0
REMARK  Name = ../refined-set-2016/3m8u/3m8u_pocket.pdb
REMARK  276 active torsions:
REMARK  status: ('A' for Active; 'I' for Inactive)
REMARK    1  A    between atoms: _1  and  _3
REMARK    2  A    between atoms: _3  and  _4
REMARK    3  A    between atoms: _3  and  _6
REMARK    4  A    between atoms: _6  and  _7
REMARK    5  A    between atoms: _12  and  _14
REMARK    6  A    between atoms: _14  and  _15
REMARK    7  A    between atoms: _14  and  _17
REMARK    8  A    between atoms: _20  and  _22
REMARK    9  A    between atoms: _22  and  _23
REMARK   10  A    between atoms: _22  and  _25
REMARK   11  A    between atoms: _25  and  _26
REMARK   12  A    between atoms: _28  and  _30
REMARK   13  A    between atoms: _30  and  _31
REMARK   14  A    between atoms: _30  and  _33
REMARK   15  A    between atoms: _33  and  _34
REMARK   16  A    between atoms: _34  and  _35
REMARK   17  A    between atoms: _35  and  _36
REMARK   18  A    between atoms: _45  and  _47
REMARK   19  A    between atoms: _47  and  _48
REMARK   20  A    between atoms: _47  and  _50
REMARK   21  A    between atoms: _50  and  _51
REMARK   22  A    between atoms: _54  and  _56
REMARK   23  A    between atoms: _56  and  _57
REMARK   24  A    between atoms: _56  and  _59
REMARK   25  A    between atoms: _62  and  _64
REMARK   26  A    between atoms: _64  and  _65
REMARK   27  A    between atoms: _64  and  _67
REMARK   28  A    between atoms: _67  and  _68
REMARK   29  A    between atoms: _68  and  _69
REMARK   30  A    between atoms: _71  and  _73
REMARK   31  A    between atoms: _73  and  _74
REMARK   32  A    between atoms: _73  and  _76
REMARK   33  A    between atoms: _76  and  _77
REMARK   34  A    between atoms: _80  and  _82
REMARK   35  A    between atoms: _82  and  _83
REMARK   36  A    between atoms: _85  and  _87
REMARK   37  A    between atoms: _87  and  _88
REMARK   38  A    between atoms: _87  and  _90
REMARK   39  A    between atoms: _90  and  _91
REMARK   40  A    between atoms: _94  and  _96
REMARK   41  A    between atoms: _96  and  _97
REMARK   42  A    between atoms: _96  and  _99
REMARK   43  A    between atoms: _99  and  _100
REMARK   44  A    between atoms: _102  and  _104
REMARK   45  A    between atoms: _104  and  _105
REMARK   46  A    between atoms: _104  and  _107
REMARK   47  A    between atoms: _107  and  _108
REMARK   48  A    between atoms: _113  and  _114
REMARK   49  A    between atoms: _116  and  _118
REMARK   50  A    between atoms: _118  and  _119
REMARK   51  A    between atoms: _118  and  _121
REMARK   52  A    between atoms: _121  and  _122
REMARK   53  A    between atoms: _127  and  _129
REMARK   54  A    between atoms: _129  and  _130
REMARK   55  A    between atoms: _133  and  _135
REMARK   56  A    between atoms: _135  and  _136
REMARK   57  A    between atoms: _135  and  _138
REMARK   58  A    between atoms: _138  and  _139
REMARK   59  A    between atoms: _139  and  _140
REMARK   60  A    between atoms: _145  and  _147
REMARK   61  A    between atoms: _147  and  _148
REMARK   62  A    between atoms: _147  and  _150
REMARK   63  A    between atoms: _150  and  _151
REMARK   64  A    between atoms: _156  and  _157
REMARK   65  A    between atoms: _159  and  _161
REMARK   66  A    between atoms: _161  and  _162
REMARK   67  A    between atoms: _161  and  _164
REMARK   68  A    between atoms: _164  and  _165
REMARK   69  A    between atoms: _165  and  _166
REMARK   70  A    between atoms: _168  and  _170
REMARK   71  A    between atoms: _170  and  _171
REMARK   72  A    between atoms: _170  and  _173
REMARK   73  A    between atoms: _173  and  _174
REMARK   74  A    between atoms: _177  and  _179
REMARK   75  A    between atoms: _179  and  _180
REMARK   76  A    between atoms: _179  and  _182
REMARK   77  A    between atoms: _182  and  _183
REMARK   78  A    between atoms: _186  and  _188
REMARK   79  A    between atoms: _188  and  _189
REMARK   80  A    between atoms: _188  and  _191
REMARK   81  A    between atoms: _191  and  _192
REMARK   82  A    between atoms: _195  and  _197
REMARK   83  A    between atoms: _197  and  _198
REMARK   84  A    between atoms: _197  and  _200
REMARK   85  A    between atoms: _200  and  _201
REMARK   86  A    between atoms: _204  and  _206
REMARK   87  A    between atoms: _206  and  _207
REMARK   88  A    between atoms: _206  and  _209
REMARK   89  A    between atoms: _209  and  _210
REMARK   90  A    between atoms: _217  and  _218
REMARK   91  A    between atoms: _223  and  _225
REMARK   92  A    between atoms: _225  and  _226
REMARK   93  A    between atoms: _225  and  _228
REMARK   94  A    between atoms: _228  and  _229
REMARK   95  A    between atoms: _234  and  _236
REMARK   96  A    between atoms: _236  and  _237
REMARK   97  A    between atoms: _236  and  _239
REMARK   98  A    between atoms: _239  and  _240
REMARK   99  A    between atoms: _242  and  _244
REMARK  100  A    between atoms: _244  and  _245
REMARK  101  A    between atoms: _244  and  _247
REMARK  102  A    between atoms: _247  and  _248
REMARK  103  A    between atoms: _248  and  _249
REMARK  104  A    between atoms: _254  and  _256
REMARK  105  A    between atoms: _256  and  _257
REMARK  106  A    between atoms: _256  and  _259
REMARK  107  A    between atoms: _259  and  _260
REMARK  108  A    between atoms: _262  and  _264
REMARK  109  A    between atoms: _264  and  _265
REMARK  110  A    between atoms: _267  and  _269
REMARK  111  A    between atoms: _269  and  _270
REMARK  112  A    between atoms: _269  and  _272
REMARK  113  A    between atoms: _272  and  _273
REMARK  114  A    between atoms: _276  and  _278
REMARK  115  A    between atoms: _278  and  _279
REMARK  116  A    between atoms: _278  and  _281
REMARK  117  A    between atoms: _281  and  _282
REMARK  118  A    between atoms: _287  and  _289
REMARK  119  A    between atoms: _289  and  _290
REMARK  120  A    between atoms: _289  and  _292
REMARK  121  A    between atoms: _292  and  _293
REMARK  122  A    between atoms: _296  and  _298
REMARK  123  A    between atoms: _298  and  _299
REMARK  124  A    between atoms: _302  and  _304
REMARK  125  A    between atoms: _304  and  _305
REMARK  126  A    between atoms: _304  and  _307
REMARK  127  A    between atoms: _307  and  _308
REMARK  128  A    between atoms: _313  and  _314
REMARK  129  A    between atoms: _316  and  _318
REMARK  130  A    between atoms: _318  and  _319
REMARK  131  A    between atoms: _318  and  _321
REMARK  132  A    between atoms: _321  and  _322
REMARK  133  A    between atoms: _327  and  _328
REMARK  134  A    between atoms: _330  and  _332
REMARK  135  A    between atoms: _332  and  _333
REMARK  136  A    between atoms: _332  and  _335
REMARK  137  A    between atoms: _335  and  _336
REMARK  138  A    between atoms: _336  and  _337
REMARK  139  A    between atoms: _342  and  _344
REMARK  140  A    between atoms: _344  and  _345
REMARK  141  A    between atoms: _344  and  _347
REMARK  142  A    between atoms: _350  and  _352
REMARK  143  A    between atoms: _352  and  _353
REMARK  144  A    between atoms: _352  and  _355
REMARK  145  A    between atoms: _358  and  _360
REMARK  146  A    between atoms: _360  and  _361
REMARK  147  A    between atoms: _360  and  _363
REMARK  148  A    between atoms: _363  and  _364
REMARK  149  A    between atoms: _364  and  _365
REMARK  150  A    between atoms: _365  and  _366
REMARK  151  A    between atoms: _375  and  _377
REMARK  152  A    between atoms: _377  and  _378
REMARK  153  A    between atoms: _381  and  _383
REMARK  154  A    between atoms: _383  and  _384
REMARK  155  A    between atoms: _383  and  _386
REMARK  156  A    between atoms: _386  and  _387
REMARK  157  A    between atoms: _389  and  _391
REMARK  158  A    between atoms: _391  and  _392
REMARK  159  A    between atoms: _391  and  _394
REMARK  160  A    between atoms: _394  and  _395
REMARK  161  A    between atoms: _400  and  _402
REMARK  162  A    between atoms: _402  and  _403
REMARK  163  A    between atoms: _402  and  _405
REMARK  164  A    between atoms: _405  and  _406
REMARK  165  A    between atoms: _416  and  _418
REMARK  166  A    between atoms: _418  and  _419
REMARK  167  A    between atoms: _418  and  _421
REMARK  168  A    between atoms: _421  and  _422
REMARK  169  A    between atoms: _425  and  _427
REMARK  170  A    between atoms: _427  and  _428
REMARK  171  A    between atoms: _427  and  _430
REMARK  172  A    between atoms: _430  and  _431
REMARK  173  A    between atoms: _436  and  _437
REMARK  174  A    between atoms: _439  and  _441
REMARK  175  A    between atoms: _441  and  _442
REMARK  176  A    between atoms: _444  and  _446
REMARK  177  A    between atoms: _446  and  _447
REMARK  178  A    between atoms: _446  and  _449
REMARK  179  A    between atoms: _449  and  _450
REMARK  180  A    between atoms: _460  and  _462
REMARK  181  A    between atoms: _462  and  _463
REMARK  182  A    between atoms: _462  and  _465
REMARK  183  A    between atoms: _465  and  _466
REMARK  184  A    between atoms: _468  and  _470
REMARK  185  A    between atoms: _470  and  _471
REMARK  186  A    between atoms: _473  and  _475
REMARK  187  A    between atoms: _475  and  _476
REMARK  188  A    between atoms: _475  and  _478
REMARK  189  A    between atoms: _478  and  _479
REMARK  190  A    between atoms: _482  and  _484
REMARK  191  A    between atoms: _484  and  _485
REMARK  192  A    between atoms: _484  and  _487
REMARK  193  A    between atoms: _487  and  _488
REMARK  194  A    between atoms: _493  and  _495
REMARK  195  A    between atoms: _495  and  _496
REMARK  196  A    between atoms: _495  and  _498
REMARK  197  A    between atoms: _498  and  _499
REMARK  198  A    between atoms: _504  and  _506
REMARK  199  A    between atoms: _506  and  _507
REMARK  200  A    between atoms: _506  and  _509
REMARK  201  A    between atoms: _509  and  _510
REMARK  202  A    between atoms: _517  and  _518
REMARK  203  A    between atoms: _523  and  _525
REMARK  204  A    between atoms: _525  and  _526
REMARK  205  A    between atoms: _525  and  _528
REMARK  206  A    between atoms: _528  and  _529
REMARK  207  A    between atoms: _532  and  _534
REMARK  208  A    between atoms: _534  and  _535
REMARK  209  A    between atoms: _534  and  _537
REMARK  210  A    between atoms: _537  and  _538
REMARK  211  A    between atoms: _540  and  _542
REMARK  212  A    between atoms: _542  and  _543
REMARK  213  A    between atoms: _542  and  _545
REMARK  214  A    between atoms: _545  and  _546
REMARK  215  A    between atoms: _551  and  _552
REMARK  216  A    between atoms: _554  and  _556
REMARK  217  A    between atoms: _556  and  _557
REMARK  218  A    between atoms: _556  and  _559
REMARK  219  A    between atoms: _559  and  _560
REMARK  220  A    between atoms: _562  and  _564
REMARK  221  A    between atoms: _564  and  _565
REMARK  222  A    between atoms: _564  and  _567
REMARK  223  A    between atoms: _567  and  _568
REMARK  224  A    between atoms: _571  and  _573
REMARK  225  A    between atoms: _573  and  _574
REMARK  226  A    between atoms: _573  and  _576
REMARK  227  A    between atoms: _576  and  _577
REMARK  228  A    between atoms: _582  and  _584
REMARK  229  A    between atoms: _584  and  _585
REMARK  230  A    between atoms: _584  and  _587
REMARK  231  A    between atoms: _587  and  _588
REMARK  232  A    between atoms: _594  and  _596
REMARK  233  A    between atoms: _596  and  _597
REMARK  234  A    between atoms: _601  and  _602
REMARK  235  A    between atoms: _607  and  _609
REMARK  236  A    between atoms: _609  and  _610
REMARK  237  A    between atoms: _609  and  _612
REMARK  238  A    between atoms: _612  and  _613
REMARK  239  A    between atoms: _618  and  _619
REMARK  240  A    between atoms: _621  and  _623
REMARK  241  A    between atoms: _623  and  _624
REMARK  242  A    between atoms: _623  and  _626
REMARK  243  A    between atoms: _626  and  _627
REMARK  244  A    between atoms: _627  and  _628
REMARK  245  A    between atoms: _628  and  _629
REMARK  246  A    between atoms: _629  and  _630
REMARK  247  A    between atoms: _634  and  _636
REMARK  248  A    between atoms: _636  and  _637
REMARK  249  A    between atoms: _636  and  _639
REMARK  250  A    between atoms: _639  and  _640
REMARK  251  A    between atoms: _640  and  _641
REMARK  252  A    between atoms: _646  and  _648
REMARK  253  A    between atoms: _648  and  _649
REMARK  254  A    between atoms: _648  and  _651
REMARK  255  A    between atoms: _651  and  _652
REMARK  256  A    between atoms: _655  and  _656
REMARK  257  A    between atoms: _661  and  _663
REMARK  258  A    between atoms: _663  and  _664
REMARK  259  A    between atoms: _663  and  _666
REMARK  260  A    between atoms: _666  and  _667
REMARK  261  A    between atoms: _673  and  _675
REMARK  262  A    between atoms: _675  and  _676
REMARK  263  A    between atoms: _678  and  _680
REMARK  264  A    between atoms: _680  and  _681
REMARK  265  A    between atoms: _680  and  _683
REMARK  266  A    between atoms: _683  and  _684
REMARK  267  A    between atoms: _689  and  _690
REMARK  268  A    between atoms: _692  and  _694
REMARK  269  A    between atoms: _694  and  _695
REMARK  270  A    between atoms: _694  and  _697
REMARK  271  A    between atoms: _697  and  _698
REMARK  272  A    between atoms: _701  and  _703
REMARK  273  A    between atoms: _703  and  _704
REMARK  274  A    between atoms: _703  and  _706
REMARK  275  A    between atoms: _706  and  _707
REMARK  276  A    between atoms: _712  and  _713
REMARK                            x       y       z     vdW  Elec       q    Type
REMARK                         _______ _______ _______ _____ _____    ______ ____
ROOT
ATOM      1  O   HOH     1      17.431 -19.718  -5.736  0.00  0.00    +0.000 OA
ENDROOT
TORSDOF 0
REMARK  Name = ../refined-set-2016/3m8u/3m8u_pocket.pdb
REMARK  276 active torsions:
REMARK  status: ('A' for Active; 'I' for Inactive)
REMARK    1  A    between atoms: _1  and  _3
REMARK    2  A    between atoms: _3  and  _4
REMARK    3  A    between atoms: _3  and  _6
REMARK    4  A    between atoms: _6  and  _7
REMARK    5  A    between atoms: _12  and  _14
REMARK    6  A    between atoms: _14  and  _15
REMARK    7  A    between atoms: _14  and  _17
REMARK    8  A    between atoms: _20  and  _22
REMARK    9  A    between atoms: _22  and  _23
REMARK   10  A    between atoms: _22  and  _25
REMARK   11  A    between atoms: _25  and  _26
REMARK   12  A    between atoms: _28  and  _30
REMARK   13  A    between atoms: _30  and  _31
REMARK   14  A    between atoms: _30  and  _33
REMARK   15  A    between atoms: _33  and  _34
REMARK   16  A    between atoms: _34  and  _35
REMARK   17  A    between atoms: _35  and  _36
REMARK   18  A    between atoms: _45  and  _47
REMARK   19  A    between atoms: _47  and  _48
REMARK   20  A    between atoms: _47  and  _50
REMARK   21  A    between atoms: _50  and  _51
REMARK   22  A    between atoms: _54  and  _56
REMARK   23  A    between atoms: _56  and  _57
REMARK   24  A    between atoms: _56  and  _59
REMARK   25  A    between atoms: _62  and  _64
REMARK   26  A    between atoms: _64  and  _65
REMARK   27  A    between atoms: _64  and  _67
REMARK   28  A    between atoms: _67  and  _68
REMARK   29  A    between atoms: _68  and  _69
REMARK   30  A    between atoms: _71  and  _73
REMARK   31  A    between atoms: _73  and  _74
REMARK   32  A    between atoms: _73  and  _76
REMARK   33  A    between atoms: _76  and  _77
REMARK   34  A    between atoms: _80  and  _82
REMARK   35  A    between atoms: _82  and  _83
REMARK   36  A    between atoms: _85  and  _87
REMARK   37  A    between atoms: _87  and  _88
REMARK   38  A    between atoms: _87  and  _90
REMARK   39  A    between atoms: _90  and  _91
REMARK   40  A    between atoms: _94  and  _96
REMARK   41  A    between atoms: _96  and  _97
REMARK   42  A    between atoms: _96  and  _99
REMARK   43  A    between atoms: _99  and  _100
REMARK   44  A    between atoms: _102  and  _104
REMARK   45  A    between atoms: _104  and  _105
REMARK   46  A    between atoms: _104  and  _107
REMARK   47  A    between atoms: _107  and  _108
REMARK   48  A    between atoms: _113  and  _114
REMARK   49  A    between atoms: _116  and  _118
REMARK   50  A    between atoms: _118  and  _119
REMARK   51  A    between atoms: _118  and  _121
REMARK   52  A    between atoms: _121  and  _122
REMARK   53  A    between atoms: _127  and  _129
REMARK   54  A    between atoms: _129  and  _130
REMARK   55  A    between atoms: _133  and  _135
REMARK   56  A    between atoms: _135  and  _136
REMARK   57  A    between atoms: _135  and  _138
REMARK   58  A    between atoms: _138  and  _139
REMARK   59  A    between atoms: _139  and  _140
REMARK   60  A    between atoms: _145  and  _147
REMARK   61  A    between atoms: _147  and  _148
REMARK   62  A    between atoms: _147  and  _150
REMARK   63  A    between atoms: _150  and  _151
REMARK   64  A    between atoms: _156  and  _157
REMARK   65  A    between atoms: _159  and  _161
REMARK   66  A    between atoms: _161  and  _162
REMARK   67  A    between atoms: _161  and  _164
REMARK   68  A    between atoms: _164  and  _165
REMARK   69  A    between atoms: _165  and  _166
REMARK   70  A    between atoms: _168  and  _170
REMARK   71  A    between atoms: _170  and  _171
REMARK   72  A    between atoms: _170  and  _173
REMARK   73  A    between atoms: _173  and  _174
REMARK   74  A    between atoms: _177  and  _179
REMARK   75  A    between atoms: _179  and  _180
REMARK   76  A    between atoms: _179  and  _182
REMARK   77  A    between atoms: _182  and  _183
REMARK   78  A    between atoms: _186  and  _188
REMARK   79  A    between atoms: _188  and  _189
REMARK   80  A    between atoms: _188  and  _191
REMARK   81  A    between atoms: _191  and  _192
REMARK   82  A    between atoms: _195  and  _197
REMARK   83  A    between atoms: _197  and  _198
REMARK   84  A    between atoms: _197  and  _200
REMARK   85  A    between atoms: _200  and  _201
REMARK   86  A    between atoms: _204  and  _206
REMARK   87  A    between atoms: _206  and  _207
REMARK   88  A    between atoms: _206  and  _209
REMARK   89  A    between atoms: _209  and  _210
REMARK   90  A    between atoms: _217  and  _218
REMARK   91  A    between atoms: _223  and  _225
REMARK   92  A    between atoms: _225  and  _226
REMARK   93  A    between atoms: _225  and  _228
REMARK   94  A    between atoms: _228  and  _229
REMARK   95  A    between atoms: _234  and  _236
REMARK   96  A    between atoms: _236  and  _237
REMARK   97  A    between atoms: _236  and  _239
REMARK   98  A    between atoms: _239  and  _240
REMARK   99  A    between atoms: _242  and  _244
REMARK  100  A    between atoms: _244  and  _245
REMARK  101  A    between atoms: _244  and  _247
REMARK  102  A    between atoms: _247  and  _248
REMARK  103  A    between atoms: _248  and  _249
REMARK  104  A    between atoms: _254  and  _256
REMARK  105  A    between atoms: _256  and  _257
REMARK  106  A    between atoms: _256  and  _259
REMARK  107  A    between atoms: _259  and  _260
REMARK  108  A    between atoms: _262  and  _264
REMARK  109  A    between atoms: _264  and  _265
REMARK  110  A    between atoms: _267  and  _269
REMARK  111  A    between atoms: _269  and  _270
REMARK  112  A    between atoms: _269  and  _272
REMARK  113  A    between atoms: _272  and  _273
REMARK  114  A    between atoms: _276  and  _278
REMARK  115  A    between atoms: _278  and  _279
REMARK  116  A    between atoms: _278  and  _281
REMARK  117  A    between atoms: _281  and  _282
REMARK  118  A    between atoms: _287  and  _289
REMARK  119  A    between atoms: _289  and  _290
REMARK  120  A    between atoms: _289  and  _292
REMARK  121  A    between atoms: _292  and  _293
REMARK  122  A    between atoms: _296  and  _298
REMARK  123  A    between atoms: _298  and  _299
REMARK  124  A    between atoms: _302  and  _304
REMARK  125  A    between atoms: _304  and  _305
REMARK  126  A    between atoms: _304  and  _307
REMARK  127  A    between atoms: _307  and  _308
REMARK  128  A    between atoms: _313  and  _314
REMARK  129  A    between atoms: _316  and  _318
REMARK  130  A    between atoms: _318  and  _319
REMARK  131  A    between atoms: _318  and  _321
REMARK  132  A    between atoms: _321  and  _322
REMARK  133  A    between atoms: _327  and  _328
REMARK  134  A    between atoms: _330  and  _332
REMARK  135  A    between atoms: _332  and  _333
REMARK  136  A    between atoms: _332  and  _335
REMARK  137  A    between atoms: _335  and  _336
REMARK  138  A    between atoms: _336  and  _337
REMARK  139  A    between atoms: _342  and  _344
REMARK  140  A    between atoms: _344  and  _345
REMARK  141  A    between atoms: _344  and  _347
REMARK  142  A    between atoms: _350  and  _352
REMARK  143  A    between atoms: _352  and  _353
REMARK  144  A    between atoms: _352  and  _355
REMARK  145  A    between atoms: _358  and  _360
REMARK  146  A    between atoms: _360  and  _361
REMARK  147  A    between atoms: _360  and  _363
REMARK  148  A    between atoms: _363  and  _364
REMARK  149  A    between atoms: _364  and  _365
REMARK  150  A    between atoms: _365  and  _366
REMARK  151  A    between atoms: _375  and  _377
REMARK  152  A    between atoms: _377  and  _378
REMARK  153  A    between atoms: _381  and  _383
REMARK  154  A    between atoms: _383  and  _384
REMARK  155  A    between atoms: _383  and  _386
REMARK  156  A    between atoms: _386  and  _387
REMARK  157  A    between atoms: _389  and  _391
REMARK  158  A    between atoms: _391  and  _392
REMARK  159  A    between atoms: _391  and  _394
REMARK  160  A    between atoms: _394  and  _395
REMARK  161  A    between atoms: _400  and  _402
REMARK  162  A    between atoms: _402  and  _403
REMARK  163  A    between atoms: _402  and  _405
REMARK  164  A    between atoms: _405  and  _406
REMARK  165  A    between atoms: _416  and  _418
REMARK  166  A    between atoms: _418  and  _419
REMARK  167  A    between atoms: _418  and  _421
REMARK  168  A    between atoms: _421  and  _422
REMARK  169  A    between atoms: _425  and  _427
REMARK  170  A    between atoms: _427  and  _428
REMARK  171  A    between atoms: _427  and  _430
REMARK  172  A    between atoms: _430  and  _431
REMARK  173  A    between atoms: _436  and  _437
REMARK  174  A    between atoms: _439  and  _441
REMARK  175  A    between atoms: _441  and  _442
REMARK  176  A    between atoms: _444  and  _446
REMARK  177  A    between atoms: _446  and  _447
REMARK  178  A    between atoms: _446  and  _449
REMARK  179  A    between atoms: _449  and  _450
REMARK  180  A    between atoms: _460  and  _462
REMARK  181  A    between atoms: _462  and  _463
REMARK  182  A    between atoms: _462  and  _465
REMARK  183  A    between atoms: _465  and  _466
REMARK  184  A    between atoms: _468  and  _470
REMARK  185  A    between atoms: _470  and  _471
REMARK  186  A    between atoms: _473  and  _475
REMARK  187  A    between atoms: _475  and  _476
REMARK  188  A    between atoms: _475  and  _478
REMARK  189  A    between atoms: _478  and  _479
REMARK  190  A    between atoms: _482  and  _484
REMARK  191  A    between atoms: _484  and  _485
REMARK  192  A    between atoms: _484  and  _487
REMARK  193  A    between atoms: _487  and  _488
REMARK  194  A    between atoms: _493  and  _495
REMARK  195  A    between atoms: _495  and  _496
REMARK  196  A    between atoms: _495  and  _498
REMARK  197  A    between atoms: _498  and  _499
REMARK  198  A    between atoms: _504  and  _506
REMARK  199  A    between atoms: _506  and  _507
REMARK  200  A    between atoms: _506  and  _509
REMARK  201  A    between atoms: _509  and  _510
REMARK  202  A    between atoms: _517  and  _518
REMARK  203  A    between atoms: _523  and  _525
REMARK  204  A    between atoms: _525  and  _526
REMARK  205  A    between atoms: _525  and  _528
REMARK  206  A    between atoms: _528  and  _529
REMARK  207  A    between atoms: _532  and  _534
REMARK  208  A    between atoms: _534  and  _535
REMARK  209  A    between atoms: _534  and  _537
REMARK  210  A    between atoms: _537  and  _538
REMARK  211  A    between atoms: _540  and  _542
REMARK  212  A    between atoms: _542  and  _543
REMARK  213  A    between atoms: _542  and  _545
REMARK  214  A    between atoms: _545  and  _546
REMARK  215  A    between atoms: _551  and  _552
REMARK  216  A    between atoms: _554  and  _556
REMARK  217  A    between atoms: _556  and  _557
REMARK  218  A    between atoms: _556  and  _559
REMARK  219  A    between atoms: _559  and  _560
REMARK  220  A    between atoms: _562  and  _564
REMARK  221  A    between atoms: _564  and  _565
REMARK  222  A    between atoms: _564  and  _567
REMARK  223  A    between atoms: _567  and  _568
REMARK  224  A    between atoms: _571  and  _573
REMARK  225  A    between atoms: _573  and  _574
REMARK  226  A    between atoms: _573  and  _576
REMARK  227  A    between atoms: _576  and  _577
REMARK  228  A    between atoms: _582  and  _584
REMARK  229  A    between atoms: _584  and  _585
REMARK  230  A    between atoms: _584  and  _587
REMARK  231  A    between atoms: _587  and  _588
REMARK  232  A    between atoms: _594  and  _596
REMARK  233  A    between atoms: _596  and  _597
REMARK  234  A    between atoms: _601  and  _602
REMARK  235  A    between atoms: _607  and  _609
REMARK  236  A    between atoms: _609  and  _610
REMARK  237  A    between atoms: _609  and  _612
REMARK  238  A    between atoms: _612  and  _613
REMARK  239  A    between atoms: _618  and  _619
REMARK  240  A    between atoms: _621  and  _623
REMARK  241  A    between atoms: _623  and  _624
REMARK  242  A    between atoms: _623  and  _626
REMARK  243  A    between atoms: _626  and  _627
REMARK  244  A    between atoms: _627  and  _628
REMARK  245  A    between atoms: _628  and  _629
REMARK  246  A    between atoms: _629  and  _630
REMARK  247  A    between atoms: _634  and  _636
REMARK  248  A    between atoms: _636  and  _637
REMARK  249  A    between atoms: _636  and  _639
REMARK  250  A    between atoms: _639  and  _640
REMARK  251  A    between atoms: _640  and  _641
REMARK  252  A    between atoms: _646  and  _648
REMARK  253  A    between atoms: _648  and  _649
REMARK  254  A    between atoms: _648  and  _651
REMARK  255  A    between atoms: _651  and  _652
REMARK  256  A    between atoms: _655  and  _656
REMARK  257  A    between atoms: _661  and  _663
REMARK  258  A    between atoms: _663  and  _664
REMARK  259  A    between atoms: _663  and  _666
REMARK  260  A    between atoms: _666  and  _667
REMARK  261  A    between atoms: _673  and  _675
REMARK  262  A    between atoms: _675  and  _676
REMARK  263  A    between atoms: _678  and  _680
REMARK  264  A    between atoms: _680  and  _681
REMARK  265  A    between atoms: _680  and  _683
REMARK  266  A    between atoms: _683  and  _684
REMARK  267  A    between atoms: _689  and  _690
REMARK  268  A    between atoms: _692  and  _694
REMARK  269  A    between atoms: _694  and  _695
REMARK  270  A    between atoms: _694  and  _697
REMARK  271  A    between atoms: _697  and  _698
REMARK  272  A    between atoms: _701  and  _703
REMARK  273  A    between atoms: _703  and  _704
REMARK  274  A    between atoms: _703  and  _706
REMARK  275  A    between atoms: _706  and  _707
REMARK  276  A    between atoms: _712  and  _713
REMARK                            x       y       z     vdW  Elec       q    Type
REMARK                         _______ _______ _______ _____ _____    ______ ____
ROOT
ATOM      1  O   HOH     1      11.426 -12.115  -7.303  0.00  0.00    +0.000 OA
ENDROOT
TORSDOF 0
REMARK  Name = ../refined-set-2016/3m8u/3m8u_pocket.pdb
REMARK  276 active torsions:
REMARK  status: ('A' for Active; 'I' for Inactive)
REMARK    1  A    between atoms: _1  and  _3
REMARK    2  A    between atoms: _3  and  _4
REMARK    3  A    between atoms: _3  and  _6
REMARK    4  A    between atoms: _6  and  _7
REMARK    5  A    between atoms: _12  and  _14
REMARK    6  A    between atoms: _14  and  _15
REMARK    7  A    between atoms: _14  and  _17
REMARK    8  A    between atoms: _20  and  _22
REMARK    9  A    between atoms: _22  and  _23
REMARK   10  A    between atoms: _22  and  _25
REMARK   11  A    between atoms: _25  and  _26
REMARK   12  A    between atoms: _28  and  _30
REMARK   13  A    between atoms: _30  and  _31
REMARK   14  A    between atoms: _30  and  _33
REMARK   15  A    between atoms: _33  and  _34
REMARK   16  A    between atoms: _34  and  _35
REMARK   17  A    between atoms: _35  and  _36
REMARK   18  A    between atoms: _45  and  _47
REMARK   19  A    between atoms: _47  and  _48
REMARK   20  A    between atoms: _47  and  _50
REMARK   21  A    between atoms: _50  and  _51
REMARK   22  A    between atoms: _54  and  _56
REMARK   23  A    between atoms: _56  and  _57
REMARK   24  A    between atoms: _56  and  _59
REMARK   25  A    between atoms: _62  and  _64
REMARK   26  A    between atoms: _64  and  _65
REMARK   27  A    between atoms: _64  and  _67
REMARK   28  A    between atoms: _67  and  _68
REMARK   29  A    between atoms: _68  and  _69
REMARK   30  A    between atoms: _71  and  _73
REMARK   31  A    between atoms: _73  and  _74
REMARK   32  A    between atoms: _73  and  _76
REMARK   33  A    between atoms: _76  and  _77
REMARK   34  A    between atoms: _80  and  _82
REMARK   35  A    between atoms: _82  and  _83
REMARK   36  A    between atoms: _85  and  _87
REMARK   37  A    between atoms: _87  and  _88
REMARK   38  A    between atoms: _87  and  _90
REMARK   39  A    between atoms: _90  and  _91
REMARK   40  A    between atoms: _94  and  _96
REMARK   41  A    between atoms: _96  and  _97
REMARK   42  A    between atoms: _96  and  _99
REMARK   43  A    between atoms: _99  and  _100
REMARK   44  A    between atoms: _102  and  _104
REMARK   45  A    between atoms: _104  and  _105
REMARK   46  A    between atoms: _104  and  _107
REMARK   47  A    between atoms: _107  and  _108
REMARK   48  A    between atoms: _113  and  _114
REMARK   49  A    between atoms: _116  and  _118
REMARK   50  A    between atoms: _118  and  _119
REMARK   51  A    between atoms: _118  and  _121
REMARK   52  A    between atoms: _121  and  _122
REMARK   53  A    between atoms: _127  and  _129
REMARK   54  A    between atoms: _129  and  _130
REMARK   55  A    between atoms: _133  and  _135
REMARK   56  A    between atoms: _135  and  _136
REMARK   57  A    between atoms: _135  and  _138
REMARK   58  A    between atoms: _138  and  _139
REMARK   59  A    between atoms: _139  and  _140
REMARK   60  A    between atoms: _145  and  _147
REMARK   61  A    between atoms: _147  and  _148
REMARK   62  A    between atoms: _147  and  _150
REMARK   63  A    between atoms: _150  and  _151
REMARK   64  A    between atoms: _156  and  _157
REMARK   65  A    between atoms: _159  and  _161
REMARK   66  A    between atoms: _161  and  _162
REMARK   67  A    between atoms: _161  and  _164
REMARK   68  A    between atoms: _164  and  _165
REMARK   69  A    between atoms: _165  and  _166
REMARK   70  A    between atoms: _168  and  _170
REMARK   71  A    between atoms: _170  and  _171
REMARK   72  A    between atoms: _170  and  _173
REMARK   73  A    between atoms: _173  and  _174
REMARK   74  A    between atoms: _177  and  _179
REMARK   75  A    between atoms: _179  and  _180
REMARK   76  A    between atoms: _179  and  _182
REMARK   77  A    between atoms: _182  and  _183
REMARK   78  A    between atoms: _186  and  _188
REMARK   79  A    between atoms: _188  and  _189
REMARK   80  A    between atoms: _188  and  _191
REMARK   81  A    between atoms: _191  and  _192
REMARK   82  A    between atoms: _195  and  _197
REMARK   83  A    between atoms: _197  and  _198
REMARK   84  A    between atoms: _197  and  _200
REMARK   85  A    between atoms: _200  and  _201
REMARK   86  A    between atoms: _204  and  _206
REMARK   87  A    between atoms: _206  and  _207
REMARK   88  A    between atoms: _206  and  _209
REMARK   89  A    between atoms: _209  and  _210
REMARK   90  A    between atoms: _217  and  _218
REMARK   91  A    between atoms: _223  and  _225
REMARK   92  A    between atoms: _225  and  _226
REMARK   93  A    between atoms: _225  and  _228
REMARK   94  A    between atoms: _228  and  _229
REMARK   95  A    between atoms: _234  and  _236
REMARK   96  A    between atoms: _236  and  _237
REMARK   97  A    between atoms: _236  and  _239
REMARK   98  A    between atoms: _239  and  _240
REMARK   99  A    between atoms: _242  and  _244
REMARK  100  A    between atoms: _244  and  _245
REMARK  101  A    between atoms: _244  and  _247
REMARK  102  A    between atoms: _247  and  _248
REMARK  103  A    between atoms: _248  and  _249
REMARK  104  A    between atoms: _254  and  _256
REMARK  105  A    between atoms: _256  and  _257
REMARK  106  A    between atoms: _256  and  _259
REMARK  107  A    between atoms: _259  and  _260
REMARK  108  A    between atoms: _262  and  _264
REMARK  109  A    between atoms: _264  and  _265
REMARK  110  A    between atoms: _267  and  _269
REMARK  111  A    between atoms: _269  and  _270
REMARK  112  A    between atoms: _269  and  _272
REMARK  113  A    between atoms: _272  and  _273
REMARK  114  A    between atoms: _276  and  _278
REMARK  115  A    between atoms: _278  and  _279
REMARK  116  A    between atoms: _278  and  _281
REMARK  117  A    between atoms: _281  and  _282
REMARK  118  A    between atoms: _287  and  _289
REMARK  119  A    between atoms: _289  and  _290
REMARK  120  A    between atoms: _289  and  _292
REMARK  121  A    between atoms: _292  and  _293
REMARK  122  A    between atoms: _296  and  _298
REMARK  123  A    between atoms: _298  and  _299
REMARK  124  A    between atoms: _302  and  _304
REMARK  125  A    between atoms: _304  and  _305
REMARK  126  A    between atoms: _304  and  _307
REMARK  127  A    between atoms: _307  and  _308
REMARK  128  A    between atoms: _313  and  _314
REMARK  129  A    between atoms: _316  and  _318
REMARK  130  A    between atoms: _318  and  _319
REMARK  131  A    between atoms: _318  and  _321
REMARK  132  A    between atoms: _321  and  _322
REMARK  133  A    between atoms: _327  and  _328
REMARK  134  A    between atoms: _330  and  _332
REMARK  135  A    between atoms: _332  and  _333
REMARK  136  A    between atoms: _332  and  _335
REMARK  137  A    between atoms: _335  and  _336
REMARK  138  A    between atoms: _336  and  _337
REMARK  139  A    between atoms: _342  and  _344
REMARK  140  A    between atoms: _344  and  _345
REMARK  141  A    between atoms: _344  and  _347
REMARK  142  A    between atoms: _350  and  _352
REMARK  143  A    between atoms: _352  and  _353
REMARK  144  A    between atoms: _352  and  _355
REMARK  145  A    between atoms: _358  and  _360
REMARK  146  A    between atoms: _360  and  _361
REMARK  147  A    between atoms: _360  and  _363
REMARK  148  A    between atoms: _363  and  _364
REMARK  149  A    between atoms: _364  and  _365
REMARK  150  A    between atoms: _365  and  _366
REMARK  151  A    between atoms: _375  and  _377
REMARK  152  A    between atoms: _377  and  _378
REMARK  153  A    between atoms: _381  and  _383
REMARK  154  A    between atoms: _383  and  _384
REMARK  155  A    between atoms: _383  and  _386
REMARK  156  A    between atoms: _386  and  _387
REMARK  157  A    between atoms: _389  and  _391
REMARK  158  A    between atoms: _391  and  _392
REMARK  159  A    between atoms: _391  and  _394
REMARK  160  A    between atoms: _394  and  _395
REMARK  161  A    between atoms: _400  and  _402
REMARK  162  A    between atoms: _402  and  _403
REMARK  163  A    between atoms: _402  and  _405
REMARK  164  A    between atoms: _405  and  _406
REMARK  165  A    between atoms: _416  and  _418
REMARK  166  A    between atoms: _418  and  _419
REMARK  167  A    between atoms: _418  and  _421
REMARK  168  A    between atoms: _421  and  _422
REMARK  169  A    between atoms: _425  and  _427
REMARK  170  A    between atoms: _427  and  _428
REMARK  171  A    between atoms: _427  and  _430
REMARK  172  A    between atoms: _430  and  _431
REMARK  173  A    between atoms: _436  and  _437
REMARK  174  A    between atoms: _439  and  _441
REMARK  175  A    between atoms: _441  and  _442
REMARK  176  A    between atoms: _444  and  _446
REMARK  177  A    between atoms: _446  and  _447
REMARK  178  A    between atoms: _446  and  _449
REMARK  179  A    between atoms: _449  and  _450
REMARK  180  A    between atoms: _460  and  _462
REMARK  181  A    between atoms: _462  and  _463
REMARK  182  A    between atoms: _462  and  _465
REMARK  183  A    between atoms: _465  and  _466
REMARK  184  A    between atoms: _468  and  _470
REMARK  185  A    between atoms: _470  and  _471
REMARK  186  A    between atoms: _473  and  _475
REMARK  187  A    between atoms: _475  and  _476
REMARK  188  A    between atoms: _475  and  _478
REMARK  189  A    between atoms: _478  and  _479
REMARK  190  A    between atoms: _482  and  _484
REMARK  191  A    between atoms: _484  and  _485
REMARK  192  A    between atoms: _484  and  _487
REMARK  193  A    between atoms: _487  and  _488
REMARK  194  A    between atoms: _493  and  _495
REMARK  195  A    between atoms: _495  and  _496
REMARK  196  A    between atoms: _495  and  _498
REMARK  197  A    between atoms: _498  and  _499
REMARK  198  A    between atoms: _504  and  _506
REMARK  199  A    between atoms: _506  and  _507
REMARK  200  A    between atoms: _506  and  _509
REMARK  201  A    between atoms: _509  and  _510
REMARK  202  A    between atoms: _517  and  _518
REMARK  203  A    between atoms: _523  and  _525
REMARK  204  A    between atoms: _525  and  _526
REMARK  205  A    between atoms: _525  and  _528
REMARK  206  A    between atoms: _528  and  _529
REMARK  207  A    between atoms: _532  and  _534
REMARK  208  A    between atoms: _534  and  _535
REMARK  209  A    between atoms: _534  and  _537
REMARK  210  A    between atoms: _537  and  _538
REMARK  211  A    between atoms: _540  and  _542
REMARK  212  A    between atoms: _542  and  _543
REMARK  213  A    between atoms: _542  and  _545
REMARK  214  A    between atoms: _545  and  _546
REMARK  215  A    between atoms: _551  and  _552
REMARK  216  A    between atoms: _554  and  _556
REMARK  217  A    between atoms: _556  and  _557
REMARK  218  A    between atoms: _556  and  _559
REMARK  219  A    between atoms: _559  and  _560
REMARK  220  A    between atoms: _562  and  _564
REMARK  221  A    between atoms: _564  and  _565
REMARK  222  A    between atoms: _564  and  _567
REMARK  223  A    between atoms: _567  and  _568
REMARK  224  A    between atoms: _571  and  _573
REMARK  225  A    between atoms: _573  and  _574
REMARK  226  A    between atoms: _573  and  _576
REMARK  227  A    between atoms: _576  and  _577
REMARK  228  A    between atoms: _582  and  _584
REMARK  229  A    between atoms: _584  and  _585
REMARK  230  A    between atoms: _584  and  _587
REMARK  231  A    between atoms: _587  and  _588
REMARK  232  A    between atoms: _594  and  _596
REMARK  233  A    between atoms: _596  and  _597
REMARK  234  A    between atoms: _601  and  _602
REMARK  235  A    between atoms: _607  and  _609
REMARK  236  A    between atoms: _609  and  _610
REMARK  237  A    between atoms: _609  and  _612
REMARK  238  A    between atoms: _612  and  _613
REMARK  239  A    between atoms: _618  and  _619
REMARK  240  A    between atoms: _621  and  _623
REMARK  241  A    between atoms: _623  and  _624
REMARK  242  A    between atoms: _623  and  _626
REMARK  243  A    between atoms: _626  and  _627
REMARK  244  A    between atoms: _627  and  _628
REMARK  245  A    between atoms: _628  and  _629
REMARK  246  A    between atoms: _629  and  _630
REMARK  247  A    between atoms: _634  and  _636
REMARK  248  A    between atoms: _636  and  _637
REMARK  249  A    between atoms: _636  and  _639
REMARK  250  A    between atoms: _639  and  _640
REMARK  251  A    between atoms: _640  and  _641
REMARK  252  A    between atoms: _646  and  _648
REMARK  253  A    between atoms: _648  and  _649
REMARK  254  A    between atoms: _648  and  _651
REMARK  255  A    between atoms: _651  and  _652
REMARK  256  A    between atoms: _655  and  _656
REMARK  257  A    between atoms: _661  and  _663
REMARK  258  A    between atoms: _663  and  _664
REMARK  259  A    between atoms: _663  and  _666
REMARK  260  A    between atoms: _666  and  _667
REMARK  261  A    between atoms: _673  and  _675
REMARK  262  A    between atoms: _675  and  _676
REMARK  263  A    between atoms: _678  and  _680
REMARK  264  A    between atoms: _680  and  _681
REMARK  265  A    between atoms: _680  and  _683
REMARK  266  A    between atoms: _683  and  _684
REMARK  267  A    between atoms: _689  and  _690
REMARK  268  A    between atoms: _692  and  _694
REMARK  269  A    between atoms: _694  and  _695
REMARK  270  A    between atoms: _694  and  _697
REMARK  271  A    between atoms: _697  and  _698
REMARK  272  A    between atoms: _701  and  _703
REMARK  273  A    between atoms: _703  and  _704
REMARK  274  A    between atoms: _703  and  _706
REMARK  275  A    between atoms: _706  and  _707
REMARK  276  A    between atoms: _712  and  _713
REMARK                            x       y       z     vdW  Elec       q    Type
REMARK                         _______ _______ _______ _____ _____    ______ ____
ROOT
ATOM      1  O   HOH     1      21.152  -9.993 -16.761  0.00  0.00    +0.000 OA
ENDROOT
TORSDOF 0
REMARK  Name = ../refined-set-2016/3m8u/3m8u_pocket.pdb
REMARK  276 active torsions:
REMARK  status: ('A' for Active; 'I' for Inactive)
REMARK    1  A    between atoms: _1  and  _3
REMARK    2  A    between atoms: _3  and  _4
REMARK    3  A    between atoms: _3  and  _6
REMARK    4  A    between atoms: _6  and  _7
REMARK    5  A    between atoms: _12  and  _14
REMARK    6  A    between atoms: _14  and  _15
REMARK    7  A    between atoms: _14  and  _17
REMARK    8  A    between atoms: _20  and  _22
REMARK    9  A    between atoms: _22  and  _23
REMARK   10  A    between atoms: _22  and  _25
REMARK   11  A    between atoms: _25  and  _26
REMARK   12  A    between atoms: _28  and  _30
REMARK   13  A    between atoms: _30  and  _31
REMARK   14  A    between atoms: _30  and  _33
REMARK   15  A    between atoms: _33  and  _34
REMARK   16  A    between atoms: _34  and  _35
REMARK   17  A    between atoms: _35  and  _36
REMARK   18  A    between atoms: _45  and  _47
REMARK   19  A    between atoms: _47  and  _48
REMARK   20  A    between atoms: _47  and  _50
REMARK   21  A    between atoms: _50  and  _51
REMARK   22  A    between atoms: _54  and  _56
REMARK   23  A    between atoms: _56  and  _57
REMARK   24  A    between atoms: _56  and  _59
REMARK   25  A    between atoms: _62  and  _64
REMARK   26  A    between atoms: _64  and  _65
REMARK   27  A    between atoms: _64  and  _67
REMARK   28  A    between atoms: _67  and  _68
REMARK   29  A    between atoms: _68  and  _69
REMARK   30  A    between atoms: _71  and  _73
REMARK   31  A    between atoms: _73  and  _74
REMARK   32  A    between atoms: _73  and  _76
REMARK   33  A    between atoms: _76  and  _77
REMARK   34  A    between atoms: _80  and  _82
REMARK   35  A    between atoms: _82  and  _83
REMARK   36  A    between atoms: _85  and  _87
REMARK   37  A    between atoms: _87  and  _88
REMARK   38  A    between atoms: _87  and  _90
REMARK   39  A    between atoms: _90  and  _91
REMARK   40  A    between atoms: _94  and  _96
REMARK   41  A    between atoms: _96  and  _97
REMARK   42  A    between atoms: _96  and  _99
REMARK   43  A    between atoms: _99  and  _100
REMARK   44  A    between atoms: _102  and  _104
REMARK   45  A    between atoms: _104  and  _105
REMARK   46  A    between atoms: _104  and  _107
REMARK   47  A    between atoms: _107  and  _108
REMARK   48  A    between atoms: _113  and  _114
REMARK   49  A    between atoms: _116  and  _118
REMARK   50  A    between atoms: _118  and  _119
REMARK   51  A    between atoms: _118  and  _121
REMARK   52  A    between atoms: _121  and  _122
REMARK   53  A    between atoms: _127  and  _129
REMARK   54  A    between atoms: _129  and  _130
REMARK   55  A    between atoms: _133  and  _135
REMARK   56  A    between atoms: _135  and  _136
REMARK   57  A    between atoms: _135  and  _138
REMARK   58  A    between atoms: _138  and  _139
REMARK   59  A    between atoms: _139  and  _140
REMARK   60  A    between atoms: _145  and  _147
REMARK   61  A    between atoms: _147  and  _148
REMARK   62  A    between atoms: _147  and  _150
REMARK   63  A    between atoms: _150  and  _151
REMARK   64  A    between atoms: _156  and  _157
REMARK   65  A    between atoms: _159  and  _161
REMARK   66  A    between atoms: _161  and  _162
REMARK   67  A    between atoms: _161  and  _164
REMARK   68  A    between atoms: _164  and  _165
REMARK   69  A    between atoms: _165  and  _166
REMARK   70  A    between atoms: _168  and  _170
REMARK   71  A    between atoms: _170  and  _171
REMARK   72  A    between atoms: _170  and  _173
REMARK   73  A    between atoms: _173  and  _174
REMARK   74  A    between atoms: _177  and  _179
REMARK   75  A    between atoms: _179  and  _180
REMARK   76  A    between atoms: _179  and  _182
REMARK   77  A    between atoms: _182  and  _183
REMARK   78  A    between atoms: _186  and  _188
REMARK   79  A    between atoms: _188  and  _189
REMARK   80  A    between atoms: _188  and  _191
REMARK   81  A    between atoms: _191  and  _192
REMARK   82  A    between atoms: _195  and  _197
REMARK   83  A    between atoms: _197  and  _198
REMARK   84  A    between atoms: _197  and  _200
REMARK   85  A    between atoms: _200  and  _201
REMARK   86  A    between atoms: _204  and  _206
REMARK   87  A    between atoms: _206  and  _207
REMARK   88  A    between atoms: _206  and  _209
REMARK   89  A    between atoms: _209  and  _210
REMARK   90  A    between atoms: _217  and  _218
REMARK   91  A    between atoms: _223  and  _225
REMARK   92  A    between atoms: _225  and  _226
REMARK   93  A    between atoms: _225  and  _228
REMARK   94  A    between atoms: _228  and  _229
REMARK   95  A    between atoms: _234  and  _236
REMARK   96  A    between atoms: _236  and  _237
REMARK   97  A    between atoms: _236  and  _239
REMARK   98  A    between atoms: _239  and  _240
REMARK   99  A    between atoms: _242  and  _244
REMARK  100  A    between atoms: _244  and  _245
REMARK  101  A    between atoms: _244  and  _247
REMARK  102  A    between atoms: _247  and  _248
REMARK  103  A    between atoms: _248  and  _249
REMARK  104  A    between atoms: _254  and  _256
REMARK  105  A    between atoms: _256  and  _257
REMARK  106  A    between atoms: _256  and  _259
REMARK  107  A    between atoms: _259  and  _260
REMARK  108  A    between atoms: _262  and  _264
REMARK  109  A    between atoms: _264  and  _265
REMARK  110  A    between atoms: _267  and  _269
REMARK  111  A    between atoms: _269  and  _270
REMARK  112  A    between atoms: _269  and  _272
REMARK  113  A    between atoms: _272  and  _273
REMARK  114  A    between atoms: _276  and  _278
REMARK  115  A    between atoms: _278  and  _279
REMARK  116  A    between atoms: _278  and  _281
REMARK  117  A    between atoms: _281  and  _282
REMARK  118  A    between atoms: _287  and  _289
REMARK  119  A    between atoms: _289  and  _290
REMARK  120  A    between atoms: _289  and  _292
REMARK  121  A    between atoms: _292  and  _293
REMARK  122  A    between atoms: _296  and  _298
REMARK  123  A    between atoms: _298  and  _299
REMARK  124  A    between atoms: _302  and  _304
REMARK  125  A    between atoms: _304  and  _305
REMARK  126  A    between atoms: _304  and  _307
REMARK  127  A    between atoms: _307  and  _308
REMARK  128  A    between atoms: _313  and  _314
REMARK  129  A    between atoms: _316  and  _318
REMARK  130  A    between atoms: _318  and  _319
REMARK  131  A    between atoms: _318  and  _321
REMARK  132  A    between atoms: _321  and  _322
REMARK  133  A    between atoms: _327  and  _328
REMARK  134  A    between atoms: _330  and  _332
REMARK  135  A    between atoms: _332  and  _333
REMARK  136  A    between atoms: _332  and  _335
REMARK  137  A    between atoms: _335  and  _336
REMARK  138  A    between atoms: _336  and  _337
REMARK  139  A    between atoms: _342  and  _344
REMARK  140  A    between atoms: _344  and  _345
REMARK  141  A    between atoms: _344  and  _347
REMARK  142  A    between atoms: _350  and  _352
REMARK  143  A    between atoms: _352  and  _353
REMARK  144  A    between atoms: _352  and  _355
REMARK  145  A    between atoms: _358  and  _360
REMARK  146  A    between atoms: _360  and  _361
REMARK  147  A    between atoms: _360  and  _363
REMARK  148  A    between atoms: _363  and  _364
REMARK  149  A    between atoms: _364  and  _365
REMARK  150  A    between atoms: _365  and  _366
REMARK  151  A    between atoms: _375  and  _377
REMARK  152  A    between atoms: _377  and  _378
REMARK  153  A    between atoms: _381  and  _383
REMARK  154  A    between atoms: _383  and  _384
REMARK  155  A    between atoms: _383  and  _386
REMARK  156  A    between atoms: _386  and  _387
REMARK  157  A    between atoms: _389  and  _391
REMARK  158  A    between atoms: _391  and  _392
REMARK  159  A    between atoms: _391  and  _394
REMARK  160  A    between atoms: _394  and  _395
REMARK  161  A    between atoms: _400  and  _402
REMARK  162  A    between atoms: _402  and  _403
REMARK  163  A    between atoms: _402  and  _405
REMARK  164  A    between atoms: _405  and  _406
REMARK  165  A    between atoms: _416  and  _418
REMARK  166  A    between atoms: _418  and  _419
REMARK  167  A    between atoms: _418  and  _421
REMARK  168  A    between atoms: _421  and  _422
REMARK  169  A    between atoms: _425  and  _427
REMARK  170  A    between atoms: _427  and  _428
REMARK  171  A    between atoms: _427  and  _430
REMARK  172  A    between atoms: _430  and  _431
REMARK  173  A    between atoms: _436  and  _437
REMARK  174  A    between atoms: _439  and  _441
REMARK  175  A    between atoms: _441  and  _442
REMARK  176  A    between atoms: _444  and  _446
REMARK  177  A    between atoms: _446  and  _447
REMARK  178  A    between atoms: _446  and  _449
REMARK  179  A    between atoms: _449  and  _450
REMARK  180  A    between atoms: _460  and  _462
REMARK  181  A    between atoms: _462  and  _463
REMARK  182  A    between atoms: _462  and  _465
REMARK  183  A    between atoms: _465  and  _466
REMARK  184  A    between atoms: _468  and  _470
REMARK  185  A    between atoms: _470  and  _471
REMARK  186  A    between atoms: _473  and  _475
REMARK  187  A    between atoms: _475  and  _476
REMARK  188  A    between atoms: _475  and  _478
REMARK  189  A    between atoms: _478  and  _479
REMARK  190  A    between atoms: _482  and  _484
REMARK  191  A    between atoms: _484  and  _485
REMARK  192  A    between atoms: _484  and  _487
REMARK  193  A    between atoms: _487  and  _488
REMARK  194  A    between atoms: _493  and  _495
REMARK  195  A    between atoms: _495  and  _496
REMARK  196  A    between atoms: _495  and  _498
REMARK  197  A    between atoms: _498  and  _499
REMARK  198  A    between atoms: _504  and  _506
REMARK  199  A    between atoms: _506  and  _507
REMARK  200  A    between atoms: _506  and  _509
REMARK  201  A    between atoms: _509  and  _510
REMARK  202  A    between atoms: _517  and  _518
REMARK  203  A    between atoms: _523  and  _525
REMARK  204  A    between atoms: _525  and  _526
REMARK  205  A    between atoms: _525  and  _528
REMARK  206  A    between atoms: _528  and  _529
REMARK  207  A    between atoms: _532  and  _534
REMARK  208  A    between atoms: _534  and  _535
REMARK  209  A    between atoms: _534  and  _537
REMARK  210  A    between atoms: _537  and  _538
REMARK  211  A    between atoms: _540  and  _542
REMARK  212  A    between atoms: _542  and  _543
REMARK  213  A    between atoms: _542  and  _545
REMARK  214  A    between atoms: _545  and  _546
REMARK  215  A    between atoms: _551  and  _552
REMARK  216  A    between atoms: _554  and  _556
REMARK  217  A    between atoms: _556  and  _557
REMARK  218  A    between atoms: _556  and  _559
REMARK  219  A    between atoms: _559  and  _560
REMARK  220  A    between atoms: _562  and  _564
REMARK  221  A    between atoms: _564  and  _565
REMARK  222  A    between atoms: _564  and  _567
REMARK  223  A    between atoms: _567  and  _568
REMARK  224  A    between atoms: _571  and  _573
REMARK  225  A    between atoms: _573  and  _574
REMARK  226  A    between atoms: _573  and  _576
REMARK  227  A    between atoms: _576  and  _577
REMARK  228  A    between atoms: _582  and  _584
REMARK  229  A    between atoms: _584  and  _585
REMARK  230  A    between atoms: _584  and  _587
REMARK  231  A    between atoms: _587  and  _588
REMARK  232  A    between atoms: _594  and  _596
REMARK  233  A    between atoms: _596  and  _597
REMARK  234  A    between atoms: _601  and  _602
REMARK  235  A    between atoms: _607  and  _609
REMARK  236  A    between atoms: _609  and  _610
REMARK  237  A    between atoms: _609  and  _612
REMARK  238  A    between atoms: _612  and  _613
REMARK  239  A    between atoms: _618  and  _619
REMARK  240  A    between atoms: _621  and  _623
REMARK  241  A    between atoms: _623  and  _624
REMARK  242  A    between atoms: _623  and  _626
REMARK  243  A    between atoms: _626  and  _627
REMARK  244  A    between atoms: _627  and  _628
REMARK  245  A    between atoms: _628  and  _629
REMARK  246  A    between atoms: _629  and  _630
REMARK  247  A    between atoms: _634  and  _636
REMARK  248  A    between atoms: _636  and  _637
REMARK  249  A    between atoms: _636  and  _639
REMARK  250  A    between atoms: _639  and  _640
REMARK  251  A    between atoms: _640  and  _641
REMARK  252  A    between atoms: _646  and  _648
REMARK  253  A    between atoms: _648  and  _649
REMARK  254  A    between atoms: _648  and  _651
REMARK  255  A    between atoms: _651  and  _652
REMARK  256  A    between atoms: _655  and  _656
REMARK  257  A    between atoms: _661  and  _663
REMARK  258  A    between atoms: _663  and  _664
REMARK  259  A    between atoms: _663  and  _666
REMARK  260  A    between atoms: _666  and  _667
REMARK  261  A    between atoms: _673  and  _675
REMARK  262  A    between atoms: _675  and  _676
REMARK  263  A    between atoms: _678  and  _680
REMARK  264  A    between atoms: _680  and  _681
REMARK  265  A    between atoms: _680  and  _683
REMARK  266  A    between atoms: _683  and  _684
REMARK  267  A    between atoms: _689  and  _690
REMARK  268  A    between atoms: _692  and  _694
REMARK  269  A    between atoms: _694  and  _695
REMARK  270  A    between atoms: _694  and  _697
REMARK  271  A    between atoms: _697  and  _698
REMARK  272  A    between atoms: _701  and  _703
REMARK  273  A    between atoms: _703  and  _704
REMARK  274  A    between atoms: _703  and  _706
REMARK  275  A    between atoms: _706  and  _707
REMARK  276  A    between atoms: _712  and  _713
REMARK                            x       y       z     vdW  Elec       q    Type
REMARK                         _______ _______ _______ _____ _____    ______ ____
ROOT
ATOM      1  O   HOH     1       7.653 -17.165 -13.574  0.00  0.00    +0.000 OA
ENDROOT
TORSDOF 0
REMARK  Name = ../refined-set-2016/3m8u/3m8u_pocket.pdb
REMARK  276 active torsions:
REMARK  status: ('A' for Active; 'I' for Inactive)
REMARK    1  A    between atoms: _1  and  _3
REMARK    2  A    between atoms: _3  and  _4
REMARK    3  A    between atoms: _3  and  _6
REMARK    4  A    between atoms: _6  and  _7
REMARK    5  A    between atoms: _12  and  _14
REMARK    6  A    between atoms: _14  and  _15
REMARK    7  A    between atoms: _14  and  _17
REMARK    8  A    between atoms: _20  and  _22
REMARK    9  A    between atoms: _22  and  _23
REMARK   10  A    between atoms: _22  and  _25
REMARK   11  A    between atoms: _25  and  _26
REMARK   12  A    between atoms: _28  and  _30
REMARK   13  A    between atoms: _30  and  _31
REMARK   14  A    between atoms: _30  and  _33
REMARK   15  A    between atoms: _33  and  _34
REMARK   16  A    between atoms: _34  and  _35
REMARK   17  A    between atoms: _35  and  _36
REMARK   18  A    between atoms: _45  and  _47
REMARK   19  A    between atoms: _47  and  _48
REMARK   20  A    between atoms: _47  and  _50
REMARK   21  A    between atoms: _50  and  _51
REMARK   22  A    between atoms: _54  and  _56
REMARK   23  A    between atoms: _56  and  _57
REMARK   24  A    between atoms: _56  and  _59
REMARK   25  A    between atoms: _62  and  _64
REMARK   26  A    between atoms: _64  and  _65
REMARK   27  A    between atoms: _64  and  _67
REMARK   28  A    between atoms: _67  and  _68
REMARK   29  A    between atoms: _68  and  _69
REMARK   30  A    between atoms: _71  and  _73
REMARK   31  A    between atoms: _73  and  _74
REMARK   32  A    between atoms: _73  and  _76
REMARK   33  A    between atoms: _76  and  _77
REMARK   34  A    between atoms: _80  and  _82
REMARK   35  A    between atoms: _82  and  _83
REMARK   36  A    between atoms: _85  and  _87
REMARK   37  A    between atoms: _87  and  _88
REMARK   38  A    between atoms: _87  and  _90
REMARK   39  A    between atoms: _90  and  _91
REMARK   40  A    between atoms: _94  and  _96
REMARK   41  A    between atoms: _96  and  _97
REMARK   42  A    between atoms: _96  and  _99
REMARK   43  A    between atoms: _99  and  _100
REMARK   44  A    between atoms: _102  and  _104
REMARK   45  A    between atoms: _104  and  _105
REMARK   46  A    between atoms: _104  and  _107
REMARK   47  A    between atoms: _107  and  _108
REMARK   48  A    between atoms: _113  and  _114
REMARK   49  A    between atoms: _116  and  _118
REMARK   50  A    between atoms: _118  and  _119
REMARK   51  A    between atoms: _118  and  _121
REMARK   52  A    between atoms: _121  and  _122
REMARK   53  A    between atoms: _127  and  _129
REMARK   54  A    between atoms: _129  and  _130
REMARK   55  A    between atoms: _133  and  _135
REMARK   56  A    between atoms: _135  and  _136
REMARK   57  A    between atoms: _135  and  _138
REMARK   58  A    between atoms: _138  and  _139
REMARK   59  A    between atoms: _139  and  _140
REMARK   60  A    between atoms: _145  and  _147
REMARK   61  A    between atoms: _147  and  _148
REMARK   62  A    between atoms: _147  and  _150
REMARK   63  A    between atoms: _150  and  _151
REMARK   64  A    between atoms: _156  and  _157
REMARK   65  A    between atoms: _159  and  _161
REMARK   66  A    between atoms: _161  and  _162
REMARK   67  A    between atoms: _161  and  _164
REMARK   68  A    between atoms: _164  and  _165
REMARK   69  A    between atoms: _165  and  _166
REMARK   70  A    between atoms: _168  and  _170
REMARK   71  A    between atoms: _170  and  _171
REMARK   72  A    between atoms: _170  and  _173
REMARK   73  A    between atoms: _173  and  _174
REMARK   74  A    between atoms: _177  and  _179
REMARK   75  A    between atoms: _179  and  _180
REMARK   76  A    between atoms: _179  and  _182
REMARK   77  A    between atoms: _182  and  _183
REMARK   78  A    between atoms: _186  and  _188
REMARK   79  A    between atoms: _188  and  _189
REMARK   80  A    between atoms: _188  and  _191
REMARK   81  A    between atoms: _191  and  _192
REMARK   82  A    between atoms: _195  and  _197
REMARK   83  A    between atoms: _197  and  _198
REMARK   84  A    between atoms: _197  and  _200
REMARK   85  A    between atoms: _200  and  _201
REMARK   86  A    between atoms: _204  and  _206
REMARK   87  A    between atoms: _206  and  _207
REMARK   88  A    between atoms: _206  and  _209
REMARK   89  A    between atoms: _209  and  _210
REMARK   90  A    between atoms: _217  and  _218
REMARK   91  A    between atoms: _223  and  _225
REMARK   92  A    between atoms: _225  and  _226
REMARK   93  A    between atoms: _225  and  _228
REMARK   94  A    between atoms: _228  and  _229
REMARK   95  A    between atoms: _234  and  _236
REMARK   96  A    between atoms: _236  and  _237
REMARK   97  A    between atoms: _236  and  _239
REMARK   98  A    between atoms: _239  and  _240
REMARK   99  A    between atoms: _242  and  _244
REMARK  100  A    between atoms: _244  and  _245
REMARK  101  A    between atoms: _244  and  _247
REMARK  102  A    between atoms: _247  and  _248
REMARK  103  A    between atoms: _248  and  _249
REMARK  104  A    between atoms: _254  and  _256
REMARK  105  A    between atoms: _256  and  _257
REMARK  106  A    between atoms: _256  and  _259
REMARK  107  A    between atoms: _259  and  _260
REMARK  108  A    between atoms: _262  and  _264
REMARK  109  A    between atoms: _264  and  _265
REMARK  110  A    between atoms: _267  and  _269
REMARK  111  A    between atoms: _269  and  _270
REMARK  112  A    between atoms: _269  and  _272
REMARK  113  A    between atoms: _272  and  _273
REMARK  114  A    between atoms: _276  and  _278
REMARK  115  A    between atoms: _278  and  _279
REMARK  116  A    between atoms: _278  and  _281
REMARK  117  A    between atoms: _281  and  _282
REMARK  118  A    between atoms: _287  and  _289
REMARK  119  A    between atoms: _289  and  _290
REMARK  120  A    between atoms: _289  and  _292
REMARK  121  A    between atoms: _292  and  _293
REMARK  122  A    between atoms: _296  and  _298
REMARK  123  A    between atoms: _298  and  _299
REMARK  124  A    between atoms: _302  and  _304
REMARK  125  A    between atoms: _304  and  _305
REMARK  126  A    between atoms: _304  and  _307
REMARK  127  A    between atoms: _307  and  _308
REMARK  128  A    between atoms: _313  and  _314
REMARK  129  A    between atoms: _316  and  _318
REMARK  130  A    between atoms: _318  and  _319
REMARK  131  A    between atoms: _318  and  _321
REMARK  132  A    between atoms: _321  and  _322
REMARK  133  A    between atoms: _327  and  _328
REMARK  134  A    between atoms: _330  and  _332
REMARK  135  A    between atoms: _332  and  _333
REMARK  136  A    between atoms: _332  and  _335
REMARK  137  A    between atoms: _335  and  _336
REMARK  138  A    between atoms: _336  and  _337
REMARK  139  A    between atoms: _342  and  _344
REMARK  140  A    between atoms: _344  and  _345
REMARK  141  A    between atoms: _344  and  _347
REMARK  142  A    between atoms: _350  and  _352
REMARK  143  A    between atoms: _352  and  _353
REMARK  144  A    between atoms: _352  and  _355
REMARK  145  A    between atoms: _358  and  _360
REMARK  146  A    between atoms: _360  and  _361
REMARK  147  A    between atoms: _360  and  _363
REMARK  148  A    between atoms: _363  and  _364
REMARK  149  A    between atoms: _364  and  _365
REMARK  150  A    between atoms: _365  and  _366
REMARK  151  A    between atoms: _375  and  _377
REMARK  152  A    between atoms: _377  and  _378
REMARK  153  A    between atoms: _381  and  _383
REMARK  154  A    between atoms: _383  and  _384
REMARK  155  A    between atoms: _383  and  _386
REMARK  156  A    between atoms: _386  and  _387
REMARK  157  A    between atoms: _389  and  _391
REMARK  158  A    between atoms: _391  and  _392
REMARK  159  A    between atoms: _391  and  _394
REMARK  160  A    between atoms: _394  and  _395
REMARK  161  A    between atoms: _400  and  _402
REMARK  162  A    between atoms: _402  and  _403
REMARK  163  A    between atoms: _402  and  _405
REMARK  164  A    between atoms: _405  and  _406
REMARK  165  A    between atoms: _416  and  _418
REMARK  166  A    between atoms: _418  and  _419
REMARK  167  A    between atoms: _418  and  _421
REMARK  168  A    between atoms: _421  and  _422
REMARK  169  A    between atoms: _425  and  _427
REMARK  170  A    between atoms: _427  and  _428
REMARK  171  A    between atoms: _427  and  _430
REMARK  172  A    between atoms: _430  and  _431
REMARK  173  A    between atoms: _436  and  _437
REMARK  174  A    between atoms: _439  and  _441
REMARK  175  A    between atoms: _441  and  _442
REMARK  176  A    between atoms: _444  and  _446
REMARK  177  A    between atoms: _446  and  _447
REMARK  178  A    between atoms: _446  and  _449
REMARK  179  A    between atoms: _449  and  _450
REMARK  180  A    between atoms: _460  and  _462
REMARK  181  A    between atoms: _462  and  _463
REMARK  182  A    between atoms: _462  and  _465
REMARK  183  A    between atoms: _465  and  _466
REMARK  184  A    between atoms: _468  and  _470
REMARK  185  A    between atoms: _470  and  _471
REMARK  186  A    between atoms: _473  and  _475
REMARK  187  A    between atoms: _475  and  _476
REMARK  188  A    between atoms: _475  and  _478
REMARK  189  A    between atoms: _478  and  _479
REMARK  190  A    between atoms: _482  and  _484
REMARK  191  A    between atoms: _484  and  _485
REMARK  192  A    between atoms: _484  and  _487
REMARK  193  A    between atoms: _487  and  _488
REMARK  194  A    between atoms: _493  and  _495
REMARK  195  A    between atoms: _495  and  _496
REMARK  196  A    between atoms: _495  and  _498
REMARK  197  A    between atoms: _498  and  _499
REMARK  198  A    between atoms: _504  and  _506
REMARK  199  A    between atoms: _506  and  _507
REMARK  200  A    between atoms: _506  and  _509
REMARK  201  A    between atoms: _509  and  _510
REMARK  202  A    between atoms: _517  and  _518
REMARK  203  A    between atoms: _523  and  _525
REMARK  204  A    between atoms: _525  and  _526
REMARK  205  A    between atoms: _525  and  _528
REMARK  206  A    between atoms: _528  and  _529
REMARK  207  A    between atoms: _532  and  _534
REMARK  208  A    between atoms: _534  and  _535
REMARK  209  A    between atoms: _534  and  _537
REMARK  210  A    between atoms: _537  and  _538
REMARK  211  A    between atoms: _540  and  _542
REMARK  212  A    between atoms: _542  and  _543
REMARK  213  A    between atoms: _542  and  _545
REMARK  214  A    between atoms: _545  and  _546
REMARK  215  A    between atoms: _551  and  _552
REMARK  216  A    between atoms: _554  and  _556
REMARK  217  A    between atoms: _556  and  _557
REMARK  218  A    between atoms: _556  and  _559
REMARK  219  A    between atoms: _559  and  _560
REMARK  220  A    between atoms: _562  and  _564
REMARK  221  A    between atoms: _564  and  _565
REMARK  222  A    between atoms: _564  and  _567
REMARK  223  A    between atoms: _567  and  _568
REMARK  224  A    between atoms: _571  and  _573
REMARK  225  A    between atoms: _573  and  _574
REMARK  226  A    between atoms: _573  and  _576
REMARK  227  A    between atoms: _576  and  _577
REMARK  228  A    between atoms: _582  and  _584
REMARK  229  A    between atoms: _584  and  _585
REMARK  230  A    between atoms: _584  and  _587
REMARK  231  A    between atoms: _587  and  _588
REMARK  232  A    between atoms: _594  and  _596
REMARK  233  A    between atoms: _596  and  _597
REMARK  234  A    between atoms: _601  and  _602
REMARK  235  A    between atoms: _607  and  _609
REMARK  236  A    between atoms: _609  and  _610
REMARK  237  A    between atoms: _609  and  _612
REMARK  238  A    between atoms: _612  and  _613
REMARK  239  A    between atoms: _618  and  _619
REMARK  240  A    between atoms: _621  and  _623
REMARK  241  A    between atoms: _623  and  _624
REMARK  242  A    between atoms: _623  and  _626
REMARK  243  A    between atoms: _626  and  _627
REMARK  244  A    between atoms: _627  and  _628
REMARK  245  A    between atoms: _628  and  _629
REMARK  246  A    between atoms: _629  and  _630
REMARK  247  A    between atoms: _634  and  _636
REMARK  248  A    between atoms: _636  and  _637
REMARK  249  A    between atoms: _636  and  _639
REMARK  250  A    between atoms: _639  and  _640
REMARK  251  A    between atoms: _640  and  _641
REMARK  252  A    between atoms: _646  and  _648
REMARK  253  A    between atoms: _648  and  _649
REMARK  254  A    between atoms: _648  and  _651
REMARK  255  A    between atoms: _651  and  _652
REMARK  256  A    between atoms: _655  and  _656
REMARK  257  A    between atoms: _661  and  _663
REMARK  258  A    between atoms: _663  and  _664
REMARK  259  A    between atoms: _663  and  _666
REMARK  260  A    between atoms: _666  and  _667
REMARK  261  A    between atoms: _673  and  _675
REMARK  262  A    between atoms: _675  and  _676
REMARK  263  A    between atoms: _678  and  _680
REMARK  264  A    between atoms: _680  and  _681
REMARK  265  A    between atoms: _680  and  _683
REMARK  266  A    between atoms: _683  and  _684
REMARK  267  A    between atoms: _689  and  _690
REMARK  268  A    between atoms: _692  and  _694
REMARK  269  A    between atoms: _694  and  _695
REMARK  270  A    between atoms: _694  and  _697
REMARK  271  A    between atoms: _697  and  _698
REMARK  272  A    between atoms: _701  and  _703
REMARK  273  A    between atoms: _703  and  _704
REMARK  274  A    between atoms: _703  and  _706
REMARK  275  A    between atoms: _706  and  _707
REMARK  276  A    between atoms: _712  and  _713
REMARK                            x       y       z     vdW  Elec       q    Type
REMARK                         _______ _______ _______ _____ _____    ______ ____
ROOT
ATOM      1  O   HOH     1       9.668  -8.552 -18.511  0.00  0.00    +0.000 OA
ENDROOT
TORSDOF 0
REMARK  Name = ../refined-set-2016/3m8u/3m8u_pocket.pdb
REMARK  276 active torsions:
REMARK  status: ('A' for Active; 'I' for Inactive)
REMARK    1  A    between atoms: _1  and  _3
REMARK    2  A    between atoms: _3  and  _4
REMARK    3  A    between atoms: _3  and  _6
REMARK    4  A    between atoms: _6  and  _7
REMARK    5  A    between atoms: _12  and  _14
REMARK    6  A    between atoms: _14  and  _15
REMARK    7  A    between atoms: _14  and  _17
REMARK    8  A    between atoms: _20  and  _22
REMARK    9  A    between atoms: _22  and  _23
REMARK   10  A    between atoms: _22  and  _25
REMARK   11  A    between atoms: _25  and  _26
REMARK   12  A    between atoms: _28  and  _30
REMARK   13  A    between atoms: _30  and  _31
REMARK   14  A    between atoms: _30  and  _33
REMARK   15  A    between atoms: _33  and  _34
REMARK   16  A    between atoms: _34  and  _35
REMARK   17  A    between atoms: _35  and  _36
REMARK   18  A    between atoms: _45  and  _47
REMARK   19  A    between atoms: _47  and  _48
REMARK   20  A    between atoms: _47  and  _50
REMARK   21  A    between atoms: _50  and  _51
REMARK   22  A    between atoms: _54  and  _56
REMARK   23  A    between atoms: _56  and  _57
REMARK   24  A    between atoms: _56  and  _59
REMARK   25  A    between atoms: _62  and  _64
REMARK   26  A    between atoms: _64  and  _65
REMARK   27  A    between atoms: _64  and  _67
REMARK   28  A    between atoms: _67  and  _68
REMARK   29  A    between atoms: _68  and  _69
REMARK   30  A    between atoms: _71  and  _73
REMARK   31  A    between atoms: _73  and  _74
REMARK   32  A    between atoms: _73  and  _76
REMARK   33  A    between atoms: _76  and  _77
REMARK   34  A    between atoms: _80  and  _82
REMARK   35  A    between atoms: _82  and  _83
REMARK   36  A    between atoms: _85  and  _87
REMARK   37  A    between atoms: _87  and  _88
REMARK   38  A    between atoms: _87  and  _90
REMARK   39  A    between atoms: _90  and  _91
REMARK   40  A    between atoms: _94  and  _96
REMARK   41  A    between atoms: _96  and  _97
REMARK   42  A    between atoms: _96  and  _99
REMARK   43  A    between atoms: _99  and  _100
REMARK   44  A    between atoms: _102  and  _104
REMARK   45  A    between atoms: _104  and  _105
REMARK   46  A    between atoms: _104  and  _107
REMARK   47  A    between atoms: _107  and  _108
REMARK   48  A    between atoms: _113  and  _114
REMARK   49  A    between atoms: _116  and  _118
REMARK   50  A    between atoms: _118  and  _119
REMARK   51  A    between atoms: _118  and  _121
REMARK   52  A    between atoms: _121  and  _122
REMARK   53  A    between atoms: _127  and  _129
REMARK   54  A    between atoms: _129  and  _130
REMARK   55  A    between atoms: _133  and  _135
REMARK   56  A    between atoms: _135  and  _136
REMARK   57  A    between atoms: _135  and  _138
REMARK   58  A    between atoms: _138  and  _139
REMARK   59  A    between atoms: _139  and  _140
REMARK   60  A    between atoms: _145  and  _147
REMARK   61  A    between atoms: _147  and  _148
REMARK   62  A    between atoms: _147  and  _150
REMARK   63  A    between atoms: _150  and  _151
REMARK   64  A    between atoms: _156  and  _157
REMARK   65  A    between atoms: _159  and  _161
REMARK   66  A    between atoms: _161  and  _162
REMARK   67  A    between atoms: _161  and  _164
REMARK   68  A    between atoms: _164  and  _165
REMARK   69  A    between atoms: _165  and  _166
REMARK   70  A    between atoms: _168  and  _170
REMARK   71  A    between atoms: _170  and  _171
REMARK   72  A    between atoms: _170  and  _173
REMARK   73  A    between atoms: _173  and  _174
REMARK   74  A    between atoms: _177  and  _179
REMARK   75  A    between atoms: _179  and  _180
REMARK   76  A    between atoms: _179  and  _182
REMARK   77  A    between atoms: _182  and  _183
REMARK   78  A    between atoms: _186  and  _188
REMARK   79  A    between atoms: _188  and  _189
REMARK   80  A    between atoms: _188  and  _191
REMARK   81  A    between atoms: _191  and  _192
REMARK   82  A    between atoms: _195  and  _197
REMARK   83  A    between atoms: _197  and  _198
REMARK   84  A    between atoms: _197  and  _200
REMARK   85  A    between atoms: _200  and  _201
REMARK   86  A    between atoms: _204  and  _206
REMARK   87  A    between atoms: _206  and  _207
REMARK   88  A    between atoms: _206  and  _209
REMARK   89  A    between atoms: _209  and  _210
REMARK   90  A    between atoms: _217  and  _218
REMARK   91  A    between atoms: _223  and  _225
REMARK   92  A    between atoms: _225  and  _226
REMARK   93  A    between atoms: _225  and  _228
REMARK   94  A    between atoms: _228  and  _229
REMARK   95  A    between atoms: _234  and  _236
REMARK   96  A    between atoms: _236  and  _237
REMARK   97  A    between atoms: _236  and  _239
REMARK   98  A    between atoms: _239  and  _240
REMARK   99  A    between atoms: _242  and  _244
REMARK  100  A    between atoms: _244  and  _245
REMARK  101  A    between atoms: _244  and  _247
REMARK  102  A    between atoms: _247  and  _248
REMARK  103  A    between atoms: _248  and  _249
REMARK  104  A    between atoms: _254  and  _256
REMARK  105  A    between atoms: _256  and  _257
REMARK  106  A    between atoms: _256  and  _259
REMARK  107  A    between atoms: _259  and  _260
REMARK  108  A    between atoms: _262  and  _264
REMARK  109  A    between atoms: _264  and  _265
REMARK  110  A    between atoms: _267  and  _269
REMARK  111  A    between atoms: _269  and  _270
REMARK  112  A    between atoms: _269  and  _272
REMARK  113  A    between atoms: _272  and  _273
REMARK  114  A    between atoms: _276  and  _278
REMARK  115  A    between atoms: _278  and  _279
REMARK  116  A    between atoms: _278  and  _281
REMARK  117  A    between atoms: _281  and  _282
REMARK  118  A    between atoms: _287  and  _289
REMARK  119  A    between atoms: _289  and  _290
REMARK  120  A    between atoms: _289  and  _292
REMARK  121  A    between atoms: _292  and  _293
REMARK  122  A    between atoms: _296  and  _298
REMARK  123  A    between atoms: _298  and  _299
REMARK  124  A    between atoms: _302  and  _304
REMARK  125  A    between atoms: _304  and  _305
REMARK  126  A    between atoms: _304  and  _307
REMARK  127  A    between atoms: _307  and  _308
REMARK  128  A    between atoms: _313  and  _314
REMARK  129  A    between atoms: _316  and  _318
REMARK  130  A    between atoms: _318  and  _319
REMARK  131  A    between atoms: _318  and  _321
REMARK  132  A    between atoms: _321  and  _322
REMARK  133  A    between atoms: _327  and  _328
REMARK  134  A    between atoms: _330  and  _332
REMARK  135  A    between atoms: _332  and  _333
REMARK  136  A    between atoms: _332  and  _335
REMARK  137  A    between atoms: _335  and  _336
REMARK  138  A    between atoms: _336  and  _337
REMARK  139  A    between atoms: _342  and  _344
REMARK  140  A    between atoms: _344  and  _345
REMARK  141  A    between atoms: _344  and  _347
REMARK  142  A    between atoms: _350  and  _352
REMARK  143  A    between atoms: _352  and  _353
REMARK  144  A    between atoms: _352  and  _355
REMARK  145  A    between atoms: _358  and  _360
REMARK  146  A    between atoms: _360  and  _361
REMARK  147  A    between atoms: _360  and  _363
REMARK  148  A    between atoms: _363  and  _364
REMARK  149  A    between atoms: _364  and  _365
REMARK  150  A    between atoms: _365  and  _366
REMARK  151  A    between atoms: _375  and  _377
REMARK  152  A    between atoms: _377  and  _378
REMARK  153  A    between atoms: _381  and  _383
REMARK  154  A    between atoms: _383  and  _384
REMARK  155  A    between atoms: _383  and  _386
REMARK  156  A    between atoms: _386  and  _387
REMARK  157  A    between atoms: _389  and  _391
REMARK  158  A    between atoms: _391  and  _392
REMARK  159  A    between atoms: _391  and  _394
REMARK  160  A    between atoms: _394  and  _395
REMARK  161  A    between atoms: _400  and  _402
REMARK  162  A    between atoms: _402  and  _403
REMARK  163  A    between atoms: _402  and  _405
REMARK  164  A    between atoms: _405  and  _406
REMARK  165  A    between atoms: _416  and  _418
REMARK  166  A    between atoms: _418  and  _419
REMARK  167  A    between atoms: _418  and  _421
REMARK  168  A    between atoms: _421  and  _422
REMARK  169  A    between atoms: _425  and  _427
REMARK  170  A    between atoms: _427  and  _428
REMARK  171  A    between atoms: _427  and  _430
REMARK  172  A    between atoms: _430  and  _431
REMARK  173  A    between atoms: _436  and  _437
REMARK  174  A    between atoms: _439  and  _441
REMARK  175  A    between atoms: _441  and  _442
REMARK  176  A    between atoms: _444  and  _446
REMARK  177  A    between atoms: _446  and  _447
REMARK  178  A    between atoms: _446  and  _449
REMARK  179  A    between atoms: _449  and  _450
REMARK  180  A    between atoms: _460  and  _462
REMARK  181  A    between atoms: _462  and  _463
REMARK  182  A    between atoms: _462  and  _465
REMARK  183  A    between atoms: _465  and  _466
REMARK  184  A    between atoms: _468  and  _470
REMARK  185  A    between atoms: _470  and  _471
REMARK  186  A    between atoms: _473  and  _475
REMARK  187  A    between atoms: _475  and  _476
REMARK  188  A    between atoms: _475  and  _478
REMARK  189  A    between atoms: _478  and  _479
REMARK  190  A    between atoms: _482  and  _484
REMARK  191  A    between atoms: _484  and  _485
REMARK  192  A    between atoms: _484  and  _487
REMARK  193  A    between atoms: _487  and  _488
REMARK  194  A    between atoms: _493  and  _495
REMARK  195  A    between atoms: _495  and  _496
REMARK  196  A    between atoms: _495  and  _498
REMARK  197  A    between atoms: _498  and  _499
REMARK  198  A    between atoms: _504  and  _506
REMARK  199  A    between atoms: _506  and  _507
REMARK  200  A    between atoms: _506  and  _509
REMARK  201  A    between atoms: _509  and  _510
REMARK  202  A    between atoms: _517  and  _518
REMARK  203  A    between atoms: _523  and  _525
REMARK  204  A    between atoms: _525  and  _526
REMARK  205  A    between atoms: _525  and  _528
REMARK  206  A    between atoms: _528  and  _529
REMARK  207  A    between atoms: _532  and  _534
REMARK  208  A    between atoms: _534  and  _535
REMARK  209  A    between atoms: _534  and  _537
REMARK  210  A    between atoms: _537  and  _538
REMARK  211  A    between atoms: _540  and  _542
REMARK  212  A    between atoms: _542  and  _543
REMARK  213  A    between atoms: _542  and  _545
REMARK  214  A    between atoms: _545  and  _546
REMARK  215  A    between atoms: _551  and  _552
REMARK  216  A    between atoms: _554  and  _556
REMARK  217  A    between atoms: _556  and  _557
REMARK  218  A    between atoms: _556  and  _559
REMARK  219  A    between atoms: _559  and  _560
REMARK  220  A    between atoms: _562  and  _564
REMARK  221  A    between atoms: _564  and  _565
REMARK  222  A    between atoms: _564  and  _567
REMARK  223  A    between atoms: _567  and  _568
REMARK  224  A    between atoms: _571  and  _573
REMARK  225  A    between atoms: _573  and  _574
REMARK  226  A    between atoms: _573  and  _576
REMARK  227  A    between atoms: _576  and  _577
REMARK  228  A    between atoms: _582  and  _584
REMARK  229  A    between atoms: _584  and  _585
REMARK  230  A    between atoms: _584  and  _587
REMARK  231  A    between atoms: _587  and  _588
REMARK  232  A    between atoms: _594  and  _596
REMARK  233  A    between atoms: _596  and  _597
REMARK  234  A    between atoms: _601  and  _602
REMARK  235  A    between atoms: _607  and  _609
REMARK  236  A    between atoms: _609  and  _610
REMARK  237  A    between atoms: _609  and  _612
REMARK  238  A    between atoms: _612  and  _613
REMARK  239  A    between atoms: _618  and  _619
REMARK  240  A    between atoms: _621  and  _623
REMARK  241  A    between atoms: _623  and  _624
REMARK  242  A    between atoms: _623  and  _626
REMARK  243  A    between atoms: _626  and  _627
REMARK  244  A    between atoms: _627  and  _628
REMARK  245  A    between atoms: _628  and  _629
REMARK  246  A    between atoms: _629  and  _630
REMARK  247  A    between atoms: _634  and  _636
REMARK  248  A    between atoms: _636  and  _637
REMARK  249  A    between atoms: _636  and  _639
REMARK  250  A    between atoms: _639  and  _640
REMARK  251  A    between atoms: _640  and  _641
REMARK  252  A    between atoms: _646  and  _648
REMARK  253  A    between atoms: _648  and  _649
REMARK  254  A    between atoms: _648  and  _651
REMARK  255  A    between atoms: _651  and  _652
REMARK  256  A    between atoms: _655  and  _656
REMARK  257  A    between atoms: _661  and  _663
REMARK  258  A    between atoms: _663  and  _664
REMARK  259  A    between atoms: _663  and  _666
REMARK  260  A    between atoms: _666  and  _667
REMARK  261  A    between atoms: _673  and  _675
REMARK  262  A    between atoms: _675  and  _676
REMARK  263  A    between atoms: _678  and  _680
REMARK  264  A    between atoms: _680  and  _681
REMARK  265  A    between atoms: _680  and  _683
REMARK  266  A    between atoms: _683  and  _684
REMARK  267  A    between atoms: _689  and  _690
REMARK  268  A    between atoms: _692  and  _694
REMARK  269  A    between atoms: _694  and  _695
REMARK  270  A    between atoms: _694  and  _697
REMARK  271  A    between atoms: _697  and  _698
REMARK  272  A    between atoms: _701  and  _703
REMARK  273  A    between atoms: _703  and  _704
REMARK  274  A    between atoms: _703  and  _706
REMARK  275  A    between atoms: _706  and  _707
REMARK  276  A    between atoms: _712  and  _713
REMARK                            x       y       z     vdW  Elec       q    Type
REMARK                         _______ _______ _______ _____ _____    ______ ____
ROOT
ATOM      1  O   HOH     1      17.191 -28.655 -14.225  0.00  0.00    +0.000 OA
ENDROOT
TORSDOF 0
REMARK  Name = ../refined-set-2016/3m8u/3m8u_pocket.pdb
REMARK  276 active torsions:
REMARK  status: ('A' for Active; 'I' for Inactive)
REMARK    1  A    between atoms: _1  and  _3
REMARK    2  A    between atoms: _3  and  _4
REMARK    3  A    between atoms: _3  and  _6
REMARK    4  A    between atoms: _6  and  _7
REMARK    5  A    between atoms: _12  and  _14
REMARK    6  A    between atoms: _14  and  _15
REMARK    7  A    between atoms: _14  and  _17
REMARK    8  A    between atoms: _20  and  _22
REMARK    9  A    between atoms: _22  and  _23
REMARK   10  A    between atoms: _22  and  _25
REMARK   11  A    between atoms: _25  and  _26
REMARK   12  A    between atoms: _28  and  _30
REMARK   13  A    between atoms: _30  and  _31
REMARK   14  A    between atoms: _30  and  _33
REMARK   15  A    between atoms: _33  and  _34
REMARK   16  A    between atoms: _34  and  _35
REMARK   17  A    between atoms: _35  and  _36
REMARK   18  A    between atoms: _45  and  _47
REMARK   19  A    between atoms: _47  and  _48
REMARK   20  A    between atoms: _47  and  _50
REMARK   21  A    between atoms: _50  and  _51
REMARK   22  A    between atoms: _54  and  _56
REMARK   23  A    between atoms: _56  and  _57
REMARK   24  A    between atoms: _56  and  _59
REMARK   25  A    between atoms: _62  and  _64
REMARK   26  A    between atoms: _64  and  _65
REMARK   27  A    between atoms: _64  and  _67
REMARK   28  A    between atoms: _67  and  _68
REMARK   29  A    between atoms: _68  and  _69
REMARK   30  A    between atoms: _71  and  _73
REMARK   31  A    between atoms: _73  and  _74
REMARK   32  A    between atoms: _73  and  _76
REMARK   33  A    between atoms: _76  and  _77
REMARK   34  A    between atoms: _80  and  _82
REMARK   35  A    between atoms: _82  and  _83
REMARK   36  A    between atoms: _85  and  _87
REMARK   37  A    between atoms: _87  and  _88
REMARK   38  A    between atoms: _87  and  _90
REMARK   39  A    between atoms: _90  and  _91
REMARK   40  A    between atoms: _94  and  _96
REMARK   41  A    between atoms: _96  and  _97
REMARK   42  A    between atoms: _96  and  _99
REMARK   43  A    between atoms: _99  and  _100
REMARK   44  A    between atoms: _102  and  _104
REMARK   45  A    between atoms: _104  and  _105
REMARK   46  A    between atoms: _104  and  _107
REMARK   47  A    between atoms: _107  and  _108
REMARK   48  A    between atoms: _113  and  _114
REMARK   49  A    between atoms: _116  and  _118
REMARK   50  A    between atoms: _118  and  _119
REMARK   51  A    between atoms: _118  and  _121
REMARK   52  A    between atoms: _121  and  _122
REMARK   53  A    between atoms: _127  and  _129
REMARK   54  A    between atoms: _129  and  _130
REMARK   55  A    between atoms: _133  and  _135
REMARK   56  A    between atoms: _135  and  _136
REMARK   57  A    between atoms: _135  and  _138
REMARK   58  A    between atoms: _138  and  _139
REMARK   59  A    between atoms: _139  and  _140
REMARK   60  A    between atoms: _145  and  _147
REMARK   61  A    between atoms: _147  and  _148
REMARK   62  A    between atoms: _147  and  _150
REMARK   63  A    between atoms: _150  and  _151
REMARK   64  A    between atoms: _156  and  _157
REMARK   65  A    between atoms: _159  and  _161
REMARK   66  A    between atoms: _161  and  _162
REMARK   67  A    between atoms: _161  and  _164
REMARK   68  A    between atoms: _164  and  _165
REMARK   69  A    between atoms: _165  and  _166
REMARK   70  A    between atoms: _168  and  _170
REMARK   71  A    between atoms: _170  and  _171
REMARK   72  A    between atoms: _170  and  _173
REMARK   73  A    between atoms: _173  and  _174
REMARK   74  A    between atoms: _177  and  _179
REMARK   75  A    between atoms: _179  and  _180
REMARK   76  A    between atoms: _179  and  _182
REMARK   77  A    between atoms: _182  and  _183
REMARK   78  A    between atoms: _186  and  _188
REMARK   79  A    between atoms: _188  and  _189
REMARK   80  A    between atoms: _188  and  _191
REMARK   81  A    between atoms: _191  and  _192
REMARK   82  A    between atoms: _195  and  _197
REMARK   83  A    between atoms: _197  and  _198
REMARK   84  A    between atoms: _197  and  _200
REMARK   85  A    between atoms: _200  and  _201
REMARK   86  A    between atoms: _204  and  _206
REMARK   87  A    between atoms: _206  and  _207
REMARK   88  A    between atoms: _206  and  _209
REMARK   89  A    between atoms: _209  and  _210
REMARK   90  A    between atoms: _217  and  _218
REMARK   91  A    between atoms: _223  and  _225
REMARK   92  A    between atoms: _225  and  _226
REMARK   93  A    between atoms: _225  and  _228
REMARK   94  A    between atoms: _228  and  _229
REMARK   95  A    between atoms: _234  and  _236
REMARK   96  A    between atoms: _236  and  _237
REMARK   97  A    between atoms: _236  and  _239
REMARK   98  A    between atoms: _239  and  _240
REMARK   99  A    between atoms: _242  and  _244
REMARK  100  A    between atoms: _244  and  _245
REMARK  101  A    between atoms: _244  and  _247
REMARK  102  A    between atoms: _247  and  _248
REMARK  103  A    between atoms: _248  and  _249
REMARK  104  A    between atoms: _254  and  _256
REMARK  105  A    between atoms: _256  and  _257
REMARK  106  A    between atoms: _256  and  _259
REMARK  107  A    between atoms: _259  and  _260
REMARK  108  A    between atoms: _262  and  _264
REMARK  109  A    between atoms: _264  and  _265
REMARK  110  A    between atoms: _267  and  _269
REMARK  111  A    between atoms: _269  and  _270
REMARK  112  A    between atoms: _269  and  _272
REMARK  113  A    between atoms: _272  and  _273
REMARK  114  A    between atoms: _276  and  _278
REMARK  115  A    between atoms: _278  and  _279
REMARK  116  A    between atoms: _278  and  _281
REMARK  117  A    between atoms: _281  and  _282
REMARK  118  A    between atoms: _287  and  _289
REMARK  119  A    between atoms: _289  and  _290
REMARK  120  A    between atoms: _289  and  _292
REMARK  121  A    between atoms: _292  and  _293
REMARK  122  A    between atoms: _296  and  _298
REMARK  123  A    between atoms: _298  and  _299
REMARK  124  A    between atoms: _302  and  _304
REMARK  125  A    between atoms: _304  and  _305
REMARK  126  A    between atoms: _304  and  _307
REMARK  127  A    between atoms: _307  and  _308
REMARK  128  A    between atoms: _313  and  _314
REMARK  129  A    between atoms: _316  and  _318
REMARK  130  A    between atoms: _318  and  _319
REMARK  131  A    between atoms: _318  and  _321
REMARK  132  A    between atoms: _321  and  _322
REMARK  133  A    between atoms: _327  and  _328
REMARK  134  A    between atoms: _330  and  _332
REMARK  135  A    between atoms: _332  and  _333
REMARK  136  A    between atoms: _332  and  _335
REMARK  137  A    between atoms: _335  and  _336
REMARK  138  A    between atoms: _336  and  _337
REMARK  139  A    between atoms: _342  and  _344
REMARK  140  A    between atoms: _344  and  _345
REMARK  141  A    between atoms: _344  and  _347
REMARK  142  A    between atoms: _350  and  _352
REMARK  143  A    between atoms: _352  and  _353
REMARK  144  A    between atoms: _352  and  _355
REMARK  145  A    between atoms: _358  and  _360
REMARK  146  A    between atoms: _360  and  _361
REMARK  147  A    between atoms: _360  and  _363
REMARK  148  A    between atoms: _363  and  _364
REMARK  149  A    between atoms: _364  and  _365
REMARK  150  A    between atoms: _365  and  _366
REMARK  151  A    between atoms: _375  and  _377
REMARK  152  A    between atoms: _377  and  _378
REMARK  153  A    between atoms: _381  and  _383
REMARK  154  A    between atoms: _383  and  _384
REMARK  155  A    between atoms: _383  and  _386
REMARK  156  A    between atoms: _386  and  _387
REMARK  157  A    between atoms: _389  and  _391
REMARK  158  A    between atoms: _391  and  _392
REMARK  159  A    between atoms: _391  and  _394
REMARK  160  A    between atoms: _394  and  _395
REMARK  161  A    between atoms: _400  and  _402
REMARK  162  A    between atoms: _402  and  _403
REMARK  163  A    between atoms: _402  and  _405
REMARK  164  A    between atoms: _405  and  _406
REMARK  165  A    between atoms: _416  and  _418
REMARK  166  A    between atoms: _418  and  _419
REMARK  167  A    between atoms: _418  and  _421
REMARK  168  A    between atoms: _421  and  _422
REMARK  169  A    between atoms: _425  and  _427
REMARK  170  A    between atoms: _427  and  _428
REMARK  171  A    between atoms: _427  and  _430
REMARK  172  A    between atoms: _430  and  _431
REMARK  173  A    between atoms: _436  and  _437
REMARK  174  A    between atoms: _439  and  _441
REMARK  175  A    between atoms: _441  and  _442
REMARK  176  A    between atoms: _444  and  _446
REMARK  177  A    between atoms: _446  and  _447
REMARK  178  A    between atoms: _446  and  _449
REMARK  179  A    between atoms: _449  and  _450
REMARK  180  A    between atoms: _460  and  _462
REMARK  181  A    between atoms: _462  and  _463
REMARK  182  A    between atoms: _462  and  _465
REMARK  183  A    between atoms: _465  and  _466
REMARK  184  A    between atoms: _468  and  _470
REMARK  185  A    between atoms: _470  and  _471
REMARK  186  A    between atoms: _473  and  _475
REMARK  187  A    between atoms: _475  and  _476
REMARK  188  A    between atoms: _475  and  _478
REMARK  189  A    between atoms: _478  and  _479
REMARK  190  A    between atoms: _482  and  _484
REMARK  191  A    between atoms: _484  and  _485
REMARK  192  A    between atoms: _484  and  _487
REMARK  193  A    between atoms: _487  and  _488
REMARK  194  A    between atoms: _493  and  _495
REMARK  195  A    between atoms: _495  and  _496
REMARK  196  A    between atoms: _495  and  _498
REMARK  197  A    between atoms: _498  and  _499
REMARK  198  A    between atoms: _504  and  _506
REMARK  199  A    between atoms: _506  and  _507
REMARK  200  A    between atoms: _506  and  _509
REMARK  201  A    between atoms: _509  and  _510
REMARK  202  A    between atoms: _517  and  _518
REMARK  203  A    between atoms: _523  and  _525
REMARK  204  A    between atoms: _525  and  _526
REMARK  205  A    between atoms: _525  and  _528
REMARK  206  A    between atoms: _528  and  _529
REMARK  207  A    between atoms: _532  and  _534
REMARK  208  A    between atoms: _534  and  _535
REMARK  209  A    between atoms: _534  and  _537
REMARK  210  A    between atoms: _537  and  _538
REMARK  211  A    between atoms: _540  and  _542
REMARK  212  A    between atoms: _542  and  _543
REMARK  213  A    between atoms: _542  and  _545
REMARK  214  A    between atoms: _545  and  _546
REMARK  215  A    between atoms: _551  and  _552
REMARK  216  A    between atoms: _554  and  _556
REMARK  217  A    between atoms: _556  and  _557
REMARK  218  A    between atoms: _556  and  _559
REMARK  219  A    between atoms: _559  and  _560
REMARK  220  A    between atoms: _562  and  _564
REMARK  221  A    between atoms: _564  and  _565
REMARK  222  A    between atoms: _564  and  _567
REMARK  223  A    between atoms: _567  and  _568
REMARK  224  A    between atoms: _571  and  _573
REMARK  225  A    between atoms: _573  and  _574
REMARK  226  A    between atoms: _573  and  _576
REMARK  227  A    between atoms: _576  and  _577
REMARK  228  A    between atoms: _582  and  _584
REMARK  229  A    between atoms: _584  and  _585
REMARK  230  A    between atoms: _584  and  _587
REMARK  231  A    between atoms: _587  and  _588
REMARK  232  A    between atoms: _594  and  _596
REMARK  233  A    between atoms: _596  and  _597
REMARK  234  A    between atoms: _601  and  _602
REMARK  235  A    between atoms: _607  and  _609
REMARK  236  A    between atoms: _609  and  _610
REMARK  237  A    between atoms: _609  and  _612
REMARK  238  A    between atoms: _612  and  _613
REMARK  239  A    between atoms: _618  and  _619
REMARK  240  A    between atoms: _621  and  _623
REMARK  241  A    between atoms: _623  and  _624
REMARK  242  A    between atoms: _623  and  _626
REMARK  243  A    between atoms: _626  and  _627
REMARK  244  A    between atoms: _627  and  _628
REMARK  245  A    between atoms: _628  and  _629
REMARK  246  A    between atoms: _629  and  _630
REMARK  247  A    between atoms: _634  and  _636
REMARK  248  A    between atoms: _636  and  _637
REMARK  249  A    between atoms: _636  and  _639
REMARK  250  A    between atoms: _639  and  _640
REMARK  251  A    between atoms: _640  and  _641
REMARK  252  A    between atoms: _646  and  _648
REMARK  253  A    between atoms: _648  and  _649
REMARK  254  A    between atoms: _648  and  _651
REMARK  255  A    between atoms: _651  and  _652
REMARK  256  A    between atoms: _655  and  _656
REMARK  257  A    between atoms: _661  and  _663
REMARK  258  A    between atoms: _663  and  _664
REMARK  259  A    between atoms: _663  and  _666
REMARK  260  A    between atoms: _666  and  _667
REMARK  261  A    between atoms: _673  and  _675
REMARK  262  A    between atoms: _675  and  _676
REMARK  263  A    between atoms: _678  and  _680
REMARK  264  A    between atoms: _680  and  _681
REMARK  265  A    between atoms: _680  and  _683
REMARK  266  A    between atoms: _683  and  _684
REMARK  267  A    between atoms: _689  and  _690
REMARK  268  A    between atoms: _692  and  _694
REMARK  269  A    between atoms: _694  and  _695
REMARK  270  A    between atoms: _694  and  _697
REMARK  271  A    between atoms: _697  and  _698
REMARK  272  A    between atoms: _701  and  _703
REMARK  273  A    between atoms: _703  and  _704
REMARK  274  A    between atoms: _703  and  _706
REMARK  275  A    between atoms: _706  and  _707
REMARK  276  A    between atoms: _712  and  _713
REMARK                            x       y       z     vdW  Elec       q    Type
REMARK                         _______ _______ _______ _____ _____    ______ ____
ROOT
ATOM      1  O   HOH     1      14.347 -15.415  -5.319  0.00  0.00    +0.000 OA
ENDROOT
TORSDOF 0
REMARK  Name = ../refined-set-2016/3m8u/3m8u_pocket.pdb
REMARK  276 active torsions:
REMARK  status: ('A' for Active; 'I' for Inactive)
REMARK    1  A    between atoms: _1  and  _3
REMARK    2  A    between atoms: _3  and  _4
REMARK    3  A    between atoms: _3  and  _6
REMARK    4  A    between atoms: _6  and  _7
REMARK    5  A    between atoms: _12  and  _14
REMARK    6  A    between atoms: _14  and  _15
REMARK    7  A    between atoms: _14  and  _17
REMARK    8  A    between atoms: _20  and  _22
REMARK    9  A    between atoms: _22  and  _23
REMARK   10  A    between atoms: _22  and  _25
REMARK   11  A    between atoms: _25  and  _26
REMARK   12  A    between atoms: _28  and  _30
REMARK   13  A    between atoms: _30  and  _31
REMARK   14  A    between atoms: _30  and  _33
REMARK   15  A    between atoms: _33  and  _34
REMARK   16  A    between atoms: _34  and  _35
REMARK   17  A    between atoms: _35  and  _36
REMARK   18  A    between atoms: _45  and  _47
REMARK   19  A    between atoms: _47  and  _48
REMARK   20  A    between atoms: _47  and  _50
REMARK   21  A    between atoms: _50  and  _51
REMARK   22  A    between atoms: _54  and  _56
REMARK   23  A    between atoms: _56  and  _57
REMARK   24  A    between atoms: _56  and  _59
REMARK   25  A    between atoms: _62  and  _64
REMARK   26  A    between atoms: _64  and  _65
REMARK   27  A    between atoms: _64  and  _67
REMARK   28  A    between atoms: _67  and  _68
REMARK   29  A    between atoms: _68  and  _69
REMARK   30  A    between atoms: _71  and  _73
REMARK   31  A    between atoms: _73  and  _74
REMARK   32  A    between atoms: _73  and  _76
REMARK   33  A    between atoms: _76  and  _77
REMARK   34  A    between atoms: _80  and  _82
REMARK   35  A    between atoms: _82  and  _83
REMARK   36  A    between atoms: _85  and  _87
REMARK   37  A    between atoms: _87  and  _88
REMARK   38  A    between atoms: _87  and  _90
REMARK   39  A    between atoms: _90  and  _91
REMARK   40  A    between atoms: _94  and  _96
REMARK   41  A    between atoms: _96  and  _97
REMARK   42  A    between atoms: _96  and  _99
REMARK   43  A    between atoms: _99  and  _100
REMARK   44  A    between atoms: _102  and  _104
REMARK   45  A    between atoms: _104  and  _105
REMARK   46  A    between atoms: _104  and  _107
REMARK   47  A    between atoms: _107  and  _108
REMARK   48  A    between atoms: _113  and  _114
REMARK   49  A    between atoms: _116  and  _118
REMARK   50  A    between atoms: _118  and  _119
REMARK   51  A    between atoms: _118  and  _121
REMARK   52  A    between atoms: _121  and  _122
REMARK   53  A    between atoms: _127  and  _129
REMARK   54  A    between atoms: _129  and  _130
REMARK   55  A    between atoms: _133  and  _135
REMARK   56  A    between atoms: _135  and  _136
REMARK   57  A    between atoms: _135  and  _138
REMARK   58  A    between atoms: _138  and  _139
REMARK   59  A    between atoms: _139  and  _140
REMARK   60  A    between atoms: _145  and  _147
REMARK   61  A    between atoms: _147  and  _148
REMARK   62  A    between atoms: _147  and  _150
REMARK   63  A    between atoms: _150  and  _151
REMARK   64  A    between atoms: _156  and  _157
REMARK   65  A    between atoms: _159  and  _161
REMARK   66  A    between atoms: _161  and  _162
REMARK   67  A    between atoms: _161  and  _164
REMARK   68  A    between atoms: _164  and  _165
REMARK   69  A    between atoms: _165  and  _166
REMARK   70  A    between atoms: _168  and  _170
REMARK   71  A    between atoms: _170  and  _171
REMARK   72  A    between atoms: _170  and  _173
REMARK   73  A    between atoms: _173  and  _174
REMARK   74  A    between atoms: _177  and  _179
REMARK   75  A    between atoms: _179  and  _180
REMARK   76  A    between atoms: _179  and  _182
REMARK   77  A    between atoms: _182  and  _183
REMARK   78  A    between atoms: _186  and  _188
REMARK   79  A    between atoms: _188  and  _189
REMARK   80  A    between atoms: _188  and  _191
REMARK   81  A    between atoms: _191  and  _192
REMARK   82  A    between atoms: _195  and  _197
REMARK   83  A    between atoms: _197  and  _198
REMARK   84  A    between atoms: _197  and  _200
REMARK   85  A    between atoms: _200  and  _201
REMARK   86  A    between atoms: _204  and  _206
REMARK   87  A    between atoms: _206  and  _207
REMARK   88  A    between atoms: _206  and  _209
REMARK   89  A    between atoms: _209  and  _210
REMARK   90  A    between atoms: _217  and  _218
REMARK   91  A    between atoms: _223  and  _225
REMARK   92  A    between atoms: _225  and  _226
REMARK   93  A    between atoms: _225  and  _228
REMARK   94  A    between atoms: _228  and  _229
REMARK   95  A    between atoms: _234  and  _236
REMARK   96  A    between atoms: _236  and  _237
REMARK   97  A    between atoms: _236  and  _239
REMARK   98  A    between atoms: _239  and  _240
REMARK   99  A    between atoms: _242  and  _244
REMARK  100  A    between atoms: _244  and  _245
REMARK  101  A    between atoms: _244  and  _247
REMARK  102  A    between atoms: _247  and  _248
REMARK  103  A    between atoms: _248  and  _249
REMARK  104  A    between atoms: _254  and  _256
REMARK  105  A    between atoms: _256  and  _257
REMARK  106  A    between atoms: _256  and  _259
REMARK  107  A    between atoms: _259  and  _260
REMARK  108  A    between atoms: _262  and  _264
REMARK  109  A    between atoms: _264  and  _265
REMARK  110  A    between atoms: _267  and  _269
REMARK  111  A    between atoms: _269  and  _270
REMARK  112  A    between atoms: _269  and  _272
REMARK  113  A    between atoms: _272  and  _273
REMARK  114  A    between atoms: _276  and  _278
REMARK  115  A    between atoms: _278  and  _279
REMARK  116  A    between atoms: _278  and  _281
REMARK  117  A    between atoms: _281  and  _282
REMARK  118  A    between atoms: _287  and  _289
REMARK  119  A    between atoms: _289  and  _290
REMARK  120  A    between atoms: _289  and  _292
REMARK  121  A    between atoms: _292  and  _293
REMARK  122  A    between atoms: _296  and  _298
REMARK  123  A    between atoms: _298  and  _299
REMARK  124  A    between atoms: _302  and  _304
REMARK  125  A    between atoms: _304  and  _305
REMARK  126  A    between atoms: _304  and  _307
REMARK  127  A    between atoms: _307  and  _308
REMARK  128  A    between atoms: _313  and  _314
REMARK  129  A    between atoms: _316  and  _318
REMARK  130  A    between atoms: _318  and  _319
REMARK  131  A    between atoms: _318  and  _321
REMARK  132  A    between atoms: _321  and  _322
REMARK  133  A    between atoms: _327  and  _328
REMARK  134  A    between atoms: _330  and  _332
REMARK  135  A    between atoms: _332  and  _333
REMARK  136  A    between atoms: _332  and  _335
REMARK  137  A    between atoms: _335  and  _336
REMARK  138  A    between atoms: _336  and  _337
REMARK  139  A    between atoms: _342  and  _344
REMARK  140  A    between atoms: _344  and  _345
REMARK  141  A    between atoms: _344  and  _347
REMARK  142  A    between atoms: _350  and  _352
REMARK  143  A    between atoms: _352  and  _353
REMARK  144  A    between atoms: _352  and  _355
REMARK  145  A    between atoms: _358  and  _360
REMARK  146  A    between atoms: _360  and  _361
REMARK  147  A    between atoms: _360  and  _363
REMARK  148  A    between atoms: _363  and  _364
REMARK  149  A    between atoms: _364  and  _365
REMARK  150  A    between atoms: _365  and  _366
REMARK  151  A    between atoms: _375  and  _377
REMARK  152  A    between atoms: _377  and  _378
REMARK  153  A    between atoms: _381  and  _383
REMARK  154  A    between atoms: _383  and  _384
REMARK  155  A    between atoms: _383  and  _386
REMARK  156  A    between atoms: _386  and  _387
REMARK  157  A    between atoms: _389  and  _391
REMARK  158  A    between atoms: _391  and  _392
REMARK  159  A    between atoms: _391  and  _394
REMARK  160  A    between atoms: _394  and  _395
REMARK  161  A    between atoms: _400  and  _402
REMARK  162  A    between atoms: _402  and  _403
REMARK  163  A    between atoms: _402  and  _405
REMARK  164  A    between atoms: _405  and  _406
REMARK  165  A    between atoms: _416  and  _418
REMARK  166  A    between atoms: _418  and  _419
REMARK  167  A    between atoms: _418  and  _421
REMARK  168  A    between atoms: _421  and  _422
REMARK  169  A    between atoms: _425  and  _427
REMARK  170  A    between atoms: _427  and  _428
REMARK  171  A    between atoms: _427  and  _430
REMARK  172  A    between atoms: _430  and  _431
REMARK  173  A    between atoms: _436  and  _437
REMARK  174  A    between atoms: _439  and  _441
REMARK  175  A    between atoms: _441  and  _442
REMARK  176  A    between atoms: _444  and  _446
REMARK  177  A    between atoms: _446  and  _447
REMARK  178  A    between atoms: _446  and  _449
REMARK  179  A    between atoms: _449  and  _450
REMARK  180  A    between atoms: _460  and  _462
REMARK  181  A    between atoms: _462  and  _463
REMARK  182  A    between atoms: _462  and  _465
REMARK  183  A    between atoms: _465  and  _466
REMARK  184  A    between atoms: _468  and  _470
REMARK  185  A    between atoms: _470  and  _471
REMARK  186  A    between atoms: _473  and  _475
REMARK  187  A    between atoms: _475  and  _476
REMARK  188  A    between atoms: _475  and  _478
REMARK  189  A    between atoms: _478  and  _479
REMARK  190  A    between atoms: _482  and  _484
REMARK  191  A    between atoms: _484  and  _485
REMARK  192  A    between atoms: _484  and  _487
REMARK  193  A    between atoms: _487  and  _488
REMARK  194  A    between atoms: _493  and  _495
REMARK  195  A    between atoms: _495  and  _496
REMARK  196  A    between atoms: _495  and  _498
REMARK  197  A    between atoms: _498  and  _499
REMARK  198  A    between atoms: _504  and  _506
REMARK  199  A    between atoms: _506  and  _507
REMARK  200  A    between atoms: _506  and  _509
REMARK  201  A    between atoms: _509  and  _510
REMARK  202  A    between atoms: _517  and  _518
REMARK  203  A    between atoms: _523  and  _525
REMARK  204  A    between atoms: _525  and  _526
REMARK  205  A    between atoms: _525  and  _528
REMARK  206  A    between atoms: _528  and  _529
REMARK  207  A    between atoms: _532  and  _534
REMARK  208  A    between atoms: _534  and  _535
REMARK  209  A    between atoms: _534  and  _537
REMARK  210  A    between atoms: _537  and  _538
REMARK  211  A    between atoms: _540  and  _542
REMARK  212  A    between atoms: _542  and  _543
REMARK  213  A    between atoms: _542  and  _545
REMARK  214  A    between atoms: _545  and  _546
REMARK  215  A    between atoms: _551  and  _552
REMARK  216  A    between atoms: _554  and  _556
REMARK  217  A    between atoms: _556  and  _557
REMARK  218  A    between atoms: _556  and  _559
REMARK  219  A    between atoms: _559  and  _560
REMARK  220  A    between atoms: _562  and  _564
REMARK  221  A    between atoms: _564  and  _565
REMARK  222  A    between atoms: _564  and  _567
REMARK  223  A    between atoms: _567  and  _568
REMARK  224  A    between atoms: _571  and  _573
REMARK  225  A    between atoms: _573  and  _574
REMARK  226  A    between atoms: _573  and  _576
REMARK  227  A    between atoms: _576  and  _577
REMARK  228  A    between atoms: _582  and  _584
REMARK  229  A    between atoms: _584  and  _585
REMARK  230  A    between atoms: _584  and  _587
REMARK  231  A    between atoms: _587  and  _588
REMARK  232  A    between atoms: _594  and  _596
REMARK  233  A    between atoms: _596  and  _597
REMARK  234  A    between atoms: _601  and  _602
REMARK  235  A    between atoms: _607  and  _609
REMARK  236  A    between atoms: _609  and  _610
REMARK  237  A    between atoms: _609  and  _612
REMARK  238  A    between atoms: _612  and  _613
REMARK  239  A    between atoms: _618  and  _619
REMARK  240  A    between atoms: _621  and  _623
REMARK  241  A    between atoms: _623  and  _624
REMARK  242  A    between atoms: _623  and  _626
REMARK  243  A    between atoms: _626  and  _627
REMARK  244  A    between atoms: _627  and  _628
REMARK  245  A    between atoms: _628  and  _629
REMARK  246  A    between atoms: _629  and  _630
REMARK  247  A    between atoms: _634  and  _636
REMARK  248  A    between atoms: _636  and  _637
REMARK  249  A    between atoms: _636  and  _639
REMARK  250  A    between atoms: _639  and  _640
REMARK  251  A    between atoms: _640  and  _641
REMARK  252  A    between atoms: _646  and  _648
REMARK  253  A    between atoms: _648  and  _649
REMARK  254  A    between atoms: _648  and  _651
REMARK  255  A    between atoms: _651  and  _652
REMARK  256  A    between atoms: _655  and  _656
REMARK  257  A    between atoms: _661  and  _663
REMARK  258  A    between atoms: _663  and  _664
REMARK  259  A    between atoms: _663  and  _666
REMARK  260  A    between atoms: _666  and  _667
REMARK  261  A    between atoms: _673  and  _675
REMARK  262  A    between atoms: _675  and  _676
REMARK  263  A    between atoms: _678  and  _680
REMARK  264  A    between atoms: _680  and  _681
REMARK  265  A    between atoms: _680  and  _683
REMARK  266  A    between atoms: _683  and  _684
REMARK  267  A    between atoms: _689  and  _690
REMARK  268  A    between atoms: _692  and  _694
REMARK  269  A    between atoms: _694  and  _695
REMARK  270  A    between atoms: _694  and  _697
REMARK  271  A    between atoms: _697  and  _698
REMARK  272  A    between atoms: _701  and  _703
REMARK  273  A    between atoms: _703  and  _704
REMARK  274  A    between atoms: _703  and  _706
REMARK  275  A    between atoms: _706  and  _707
REMARK  276  A    between atoms: _712  and  _713
REMARK                            x       y       z     vdW  Elec       q    Type
REMARK                         _______ _______ _______ _____ _____    ______ ____
ROOT
ATOM      1  O   HOH     1       2.728  -8.431 -13.034  0.00  0.00    +0.000 OA
ENDROOT
TORSDOF 0
REMARK  Name = ../refined-set-2016/3m8u/3m8u_pocket.pdb
REMARK  276 active torsions:
REMARK  status: ('A' for Active; 'I' for Inactive)
REMARK    1  A    between atoms: _1  and  _3
REMARK    2  A    between atoms: _3  and  _4
REMARK    3  A    between atoms: _3  and  _6
REMARK    4  A    between atoms: _6  and  _7
REMARK    5  A    between atoms: _12  and  _14
REMARK    6  A    between atoms: _14  and  _15
REMARK    7  A    between atoms: _14  and  _17
REMARK    8  A    between atoms: _20  and  _22
REMARK    9  A    between atoms: _22  and  _23
REMARK   10  A    between atoms: _22  and  _25
REMARK   11  A    between atoms: _25  and  _26
REMARK   12  A    between atoms: _28  and  _30
REMARK   13  A    between atoms: _30  and  _31
REMARK   14  A    between atoms: _30  and  _33
REMARK   15  A    between atoms: _33  and  _34
REMARK   16  A    between atoms: _34  and  _35
REMARK   17  A    between atoms: _35  and  _36
REMARK   18  A    between atoms: _45  and  _47
REMARK   19  A    between atoms: _47  and  _48
REMARK   20  A    between atoms: _47  and  _50
REMARK   21  A    between atoms: _50  and  _51
REMARK   22  A    between atoms: _54  and  _56
REMARK   23  A    between atoms: _56  and  _57
REMARK   24  A    between atoms: _56  and  _59
REMARK   25  A    between atoms: _62  and  _64
REMARK   26  A    between atoms: _64  and  _65
REMARK   27  A    between atoms: _64  and  _67
REMARK   28  A    between atoms: _67  and  _68
REMARK   29  A    between atoms: _68  and  _69
REMARK   30  A    between atoms: _71  and  _73
REMARK   31  A    between atoms: _73  and  _74
REMARK   32  A    between atoms: _73  and  _76
REMARK   33  A    between atoms: _76  and  _77
REMARK   34  A    between atoms: _80  and  _82
REMARK   35  A    between atoms: _82  and  _83
REMARK   36  A    between atoms: _85  and  _87
REMARK   37  A    between atoms: _87  and  _88
REMARK   38  A    between atoms: _87  and  _90
REMARK   39  A    between atoms: _90  and  _91
REMARK   40  A    between atoms: _94  and  _96
REMARK   41  A    between atoms: _96  and  _97
REMARK   42  A    between atoms: _96  and  _99
REMARK   43  A    between atoms: _99  and  _100
REMARK   44  A    between atoms: _102  and  _104
REMARK   45  A    between atoms: _104  and  _105
REMARK   46  A    between atoms: _104  and  _107
REMARK   47  A    between atoms: _107  and  _108
REMARK   48  A    between atoms: _113  and  _114
REMARK   49  A    between atoms: _116  and  _118
REMARK   50  A    between atoms: _118  and  _119
REMARK   51  A    between atoms: _118  and  _121
REMARK   52  A    between atoms: _121  and  _122
REMARK   53  A    between atoms: _127  and  _129
REMARK   54  A    between atoms: _129  and  _130
REMARK   55  A    between atoms: _133  and  _135
REMARK   56  A    between atoms: _135  and  _136
REMARK   57  A    between atoms: _135  and  _138
REMARK   58  A    between atoms: _138  and  _139
REMARK   59  A    between atoms: _139  and  _140
REMARK   60  A    between atoms: _145  and  _147
REMARK   61  A    between atoms: _147  and  _148
REMARK   62  A    between atoms: _147  and  _150
REMARK   63  A    between atoms: _150  and  _151
REMARK   64  A    between atoms: _156  and  _157
REMARK   65  A    between atoms: _159  and  _161
REMARK   66  A    between atoms: _161  and  _162
REMARK   67  A    between atoms: _161  and  _164
REMARK   68  A    between atoms: _164  and  _165
REMARK   69  A    between atoms: _165  and  _166
REMARK   70  A    between atoms: _168  and  _170
REMARK   71  A    between atoms: _170  and  _171
REMARK   72  A    between atoms: _170  and  _173
REMARK   73  A    between atoms: _173  and  _174
REMARK   74  A    between atoms: _177  and  _179
REMARK   75  A    between atoms: _179  and  _180
REMARK   76  A    between atoms: _179  and  _182
REMARK   77  A    between atoms: _182  and  _183
REMARK   78  A    between atoms: _186  and  _188
REMARK   79  A    between atoms: _188  and  _189
REMARK   80  A    between atoms: _188  and  _191
REMARK   81  A    between atoms: _191  and  _192
REMARK   82  A    between atoms: _195  and  _197
REMARK   83  A    between atoms: _197  and  _198
REMARK   84  A    between atoms: _197  and  _200
REMARK   85  A    between atoms: _200  and  _201
REMARK   86  A    between atoms: _204  and  _206
REMARK   87  A    between atoms: _206  and  _207
REMARK   88  A    between atoms: _206  and  _209
REMARK   89  A    between atoms: _209  and  _210
REMARK   90  A    between atoms: _217  and  _218
REMARK   91  A    between atoms: _223  and  _225
REMARK   92  A    between atoms: _225  and  _226
REMARK   93  A    between atoms: _225  and  _228
REMARK   94  A    between atoms: _228  and  _229
REMARK   95  A    between atoms: _234  and  _236
REMARK   96  A    between atoms: _236  and  _237
REMARK   97  A    between atoms: _236  and  _239
REMARK   98  A    between atoms: _239  and  _240
REMARK   99  A    between atoms: _242  and  _244
REMARK  100  A    between atoms: _244  and  _245
REMARK  101  A    between atoms: _244  and  _247
REMARK  102  A    between atoms: _247  and  _248
REMARK  103  A    between atoms: _248  and  _249
REMARK  104  A    between atoms: _254  and  _256
REMARK  105  A    between atoms: _256  and  _257
REMARK  106  A    between atoms: _256  and  _259
REMARK  107  A    between atoms: _259  and  _260
REMARK  108  A    between atoms: _262  and  _264
REMARK  109  A    between atoms: _264  and  _265
REMARK  110  A    between atoms: _267  and  _269
REMARK  111  A    between atoms: _269  and  _270
REMARK  112  A    between atoms: _269  and  _272
REMARK  113  A    between atoms: _272  and  _273
REMARK  114  A    between atoms: _276  and  _278
REMARK  115  A    between atoms: _278  and  _279
REMARK  116  A    between atoms: _278  and  _281
REMARK  117  A    between atoms: _281  and  _282
REMARK  118  A    between atoms: _287  and  _289
REMARK  119  A    between atoms: _289  and  _290
REMARK  120  A    between atoms: _289  and  _292
REMARK  121  A    between atoms: _292  and  _293
REMARK  122  A    between atoms: _296  and  _298
REMARK  123  A    between atoms: _298  and  _299
REMARK  124  A    between atoms: _302  and  _304
REMARK  125  A    between atoms: _304  and  _305
REMARK  126  A    between atoms: _304  and  _307
REMARK  127  A    between atoms: _307  and  _308
REMARK  128  A    between atoms: _313  and  _314
REMARK  129  A    between atoms: _316  and  _318
REMARK  130  A    between atoms: _318  and  _319
REMARK  131  A    between atoms: _318  and  _321
REMARK  132  A    between atoms: _321  and  _322
REMARK  133  A    between atoms: _327  and  _328
REMARK  134  A    between atoms: _330  and  _332
REMARK  135  A    between atoms: _332  and  _333
REMARK  136  A    between atoms: _332  and  _335
REMARK  137  A    between atoms: _335  and  _336
REMARK  138  A    between atoms: _336  and  _337
REMARK  139  A    between atoms: _342  and  _344
REMARK  140  A    between atoms: _344  and  _345
REMARK  141  A    between atoms: _344  and  _347
REMARK  142  A    between atoms: _350  and  _352
REMARK  143  A    between atoms: _352  and  _353
REMARK  144  A    between atoms: _352  and  _355
REMARK  145  A    between atoms: _358  and  _360
REMARK  146  A    between atoms: _360  and  _361
REMARK  147  A    between atoms: _360  and  _363
REMARK  148  A    between atoms: _363  and  _364
REMARK  149  A    between atoms: _364  and  _365
REMARK  150  A    between atoms: _365  and  _366
REMARK  151  A    between atoms: _375  and  _377
REMARK  152  A    between atoms: _377  and  _378
REMARK  153  A    between atoms: _381  and  _383
REMARK  154  A    between atoms: _383  and  _384
REMARK  155  A    between atoms: _383  and  _386
REMARK  156  A    between atoms: _386  and  _387
REMARK  157  A    between atoms: _389  and  _391
REMARK  158  A    between atoms: _391  and  _392
REMARK  159  A    between atoms: _391  and  _394
REMARK  160  A    between atoms: _394  and  _395
REMARK  161  A    between atoms: _400  and  _402
REMARK  162  A    between atoms: _402  and  _403
REMARK  163  A    between atoms: _402  and  _405
REMARK  164  A    between atoms: _405  and  _406
REMARK  165  A    between atoms: _416  and  _418
REMARK  166  A    between atoms: _418  and  _419
REMARK  167  A    between atoms: _418  and  _421
REMARK  168  A    between atoms: _421  and  _422
REMARK  169  A    between atoms: _425  and  _427
REMARK  170  A    between atoms: _427  and  _428
REMARK  171  A    between atoms: _427  and  _430
REMARK  172  A    between atoms: _430  and  _431
REMARK  173  A    between atoms: _436  and  _437
REMARK  174  A    between atoms: _439  and  _441
REMARK  175  A    between atoms: _441  and  _442
REMARK  176  A    between atoms: _444  and  _446
REMARK  177  A    between atoms: _446  and  _447
REMARK  178  A    between atoms: _446  and  _449
REMARK  179  A    between atoms: _449  and  _450
REMARK  180  A    between atoms: _460  and  _462
REMARK  181  A    between atoms: _462  and  _463
REMARK  182  A    between atoms: _462  and  _465
REMARK  183  A    between atoms: _465  and  _466
REMARK  184  A    between atoms: _468  and  _470
REMARK  185  A    between atoms: _470  and  _471
REMARK  186  A    between atoms: _473  and  _475
REMARK  187  A    between atoms: _475  and  _476
REMARK  188  A    between atoms: _475  and  _478
REMARK  189  A    between atoms: _478  and  _479
REMARK  190  A    between atoms: _482  and  _484
REMARK  191  A    between atoms: _484  and  _485
REMARK  192  A    between atoms: _484  and  _487
REMARK  193  A    between atoms: _487  and  _488
REMARK  194  A    between atoms: _493  and  _495
REMARK  195  A    between atoms: _495  and  _496
REMARK  196  A    between atoms: _495  and  _498
REMARK  197  A    between atoms: _498  and  _499
REMARK  198  A    between atoms: _504  and  _506
REMARK  199  A    between atoms: _506  and  _507
REMARK  200  A    between atoms: _506  and  _509
REMARK  201  A    between atoms: _509  and  _510
REMARK  202  A    between atoms: _517  and  _518
REMARK  203  A    between atoms: _523  and  _525
REMARK  204  A    between atoms: _525  and  _526
REMARK  205  A    between atoms: _525  and  _528
REMARK  206  A    between atoms: _528  and  _529
REMARK  207  A    between atoms: _532  and  _534
REMARK  208  A    between atoms: _534  and  _535
REMARK  209  A    between atoms: _534  and  _537
REMARK  210  A    between atoms: _537  and  _538
REMARK  211  A    between atoms: _540  and  _542
REMARK  212  A    between atoms: _542  and  _543
REMARK  213  A    between atoms: _542  and  _545
REMARK  214  A    between atoms: _545  and  _546
REMARK  215  A    between atoms: _551  and  _552
REMARK  216  A    between atoms: _554  and  _556
REMARK  217  A    between atoms: _556  and  _557
REMARK  218  A    between atoms: _556  and  _559
REMARK  219  A    between atoms: _559  and  _560
REMARK  220  A    between atoms: _562  and  _564
REMARK  221  A    between atoms: _564  and  _565
REMARK  222  A    between atoms: _564  and  _567
REMARK  223  A    between atoms: _567  and  _568
REMARK  224  A    between atoms: _571  and  _573
REMARK  225  A    between atoms: _573  and  _574
REMARK  226  A    between atoms: _573  and  _576
REMARK  227  A    between atoms: _576  and  _577
REMARK  228  A    between atoms: _582  and  _584
REMARK  229  A    between atoms: _584  and  _585
REMARK  230  A    between atoms: _584  and  _587
REMARK  231  A    between atoms: _587  and  _588
REMARK  232  A    between atoms: _594  and  _596
REMARK  233  A    between atoms: _596  and  _597
REMARK  234  A    between atoms: _601  and  _602
REMARK  235  A    between atoms: _607  and  _609
REMARK  236  A    between atoms: _609  and  _610
REMARK  237  A    between atoms: _609  and  _612
REMARK  238  A    between atoms: _612  and  _613
REMARK  239  A    between atoms: _618  and  _619
REMARK  240  A    between atoms: _621  and  _623
REMARK  241  A    between atoms: _623  and  _624
REMARK  242  A    between atoms: _623  and  _626
REMARK  243  A    between atoms: _626  and  _627
REMARK  244  A    between atoms: _627  and  _628
REMARK  245  A    between atoms: _628  and  _629
REMARK  246  A    between atoms: _629  and  _630
REMARK  247  A    between atoms: _634  and  _636
REMARK  248  A    between atoms: _636  and  _637
REMARK  249  A    between atoms: _636  and  _639
REMARK  250  A    between atoms: _639  and  _640
REMARK  251  A    between atoms: _640  and  _641
REMARK  252  A    between atoms: _646  and  _648
REMARK  253  A    between atoms: _648  and  _649
REMARK  254  A    between atoms: _648  and  _651
REMARK  255  A    between atoms: _651  and  _652
REMARK  256  A    between atoms: _655  and  _656
REMARK  257  A    between atoms: _661  and  _663
REMARK  258  A    between atoms: _663  and  _664
REMARK  259  A    between atoms: _663  and  _666
REMARK  260  A    between atoms: _666  and  _667
REMARK  261  A    between atoms: _673  and  _675
REMARK  262  A    between atoms: _675  and  _676
REMARK  263  A    between atoms: _678  and  _680
REMARK  264  A    between atoms: _680  and  _681
REMARK  265  A    between atoms: _680  and  _683
REMARK  266  A    between atoms: _683  and  _684
REMARK  267  A    between atoms: _689  and  _690
REMARK  268  A    between atoms: _692  and  _694
REMARK  269  A    between atoms: _694  and  _695
REMARK  270  A    between atoms: _694  and  _697
REMARK  271  A    between atoms: _697  and  _698
REMARK  272  A    between atoms: _701  and  _703
REMARK  273  A    between atoms: _703  and  _704
REMARK  274  A    between atoms: _703  and  _706
REMARK  275  A    between atoms: _706  and  _707
REMARK  276  A    between atoms: _712  and  _713
REMARK                            x       y       z     vdW  Elec       q    Type
REMARK                         _______ _______ _______ _____ _____    ______ ____
ROOT
ATOM      1  O   HOH     1      15.241 -10.317 -12.700  0.00  0.00    +0.000 OA
ENDROOT
TORSDOF 0
REMARK  Name = ../refined-set-2016/3m8u/3m8u_pocket.pdb
REMARK  276 active torsions:
REMARK  status: ('A' for Active; 'I' for Inactive)
REMARK    1  A    between atoms: _1  and  _3
REMARK    2  A    between atoms: _3  and  _4
REMARK    3  A    between atoms: _3  and  _6
REMARK    4  A    between atoms: _6  and  _7
REMARK    5  A    between atoms: _12  and  _14
REMARK    6  A    between atoms: _14  and  _15
REMARK    7  A    between atoms: _14  and  _17
REMARK    8  A    between atoms: _20  and  _22
REMARK    9  A    between atoms: _22  and  _23
REMARK   10  A    between atoms: _22  and  _25
REMARK   11  A    between atoms: _25  and  _26
REMARK   12  A    between atoms: _28  and  _30
REMARK   13  A    between atoms: _30  and  _31
REMARK   14  A    between atoms: _30  and  _33
REMARK   15  A    between atoms: _33  and  _34
REMARK   16  A    between atoms: _34  and  _35
REMARK   17  A    between atoms: _35  and  _36
REMARK   18  A    between atoms: _45  and  _47
REMARK   19  A    between atoms: _47  and  _48
REMARK   20  A    between atoms: _47  and  _50
REMARK   21  A    between atoms: _50  and  _51
REMARK   22  A    between atoms: _54  and  _56
REMARK   23  A    between atoms: _56  and  _57
REMARK   24  A    between atoms: _56  and  _59
REMARK   25  A    between atoms: _62  and  _64
REMARK   26  A    between atoms: _64  and  _65
REMARK   27  A    between atoms: _64  and  _67
REMARK   28  A    between atoms: _67  and  _68
REMARK   29  A    between atoms: _68  and  _69
REMARK   30  A    between atoms: _71  and  _73
REMARK   31  A    between atoms: _73  and  _74
REMARK   32  A    between atoms: _73  and  _76
REMARK   33  A    between atoms: _76  and  _77
REMARK   34  A    between atoms: _80  and  _82
REMARK   35  A    between atoms: _82  and  _83
REMARK   36  A    between atoms: _85  and  _87
REMARK   37  A    between atoms: _87  and  _88
REMARK   38  A    between atoms: _87  and  _90
REMARK   39  A    between atoms: _90  and  _91
REMARK   40  A    between atoms: _94  and  _96
REMARK   41  A    between atoms: _96  and  _97
REMARK   42  A    between atoms: _96  and  _99
REMARK   43  A    between atoms: _99  and  _100
REMARK   44  A    between atoms: _102  and  _104
REMARK   45  A    between atoms: _104  and  _105
REMARK   46  A    between atoms: _104  and  _107
REMARK   47  A    between atoms: _107  and  _108
REMARK   48  A    between atoms: _113  and  _114
REMARK   49  A    between atoms: _116  and  _118
REMARK   50  A    between atoms: _118  and  _119
REMARK   51  A    between atoms: _118  and  _121
REMARK   52  A    between atoms: _121  and  _122
REMARK   53  A    between atoms: _127  and  _129
REMARK   54  A    between atoms: _129  and  _130
REMARK   55  A    between atoms: _133  and  _135
REMARK   56  A    between atoms: _135  and  _136
REMARK   57  A    between atoms: _135  and  _138
REMARK   58  A    between atoms: _138  and  _139
REMARK   59  A    between atoms: _139  and  _140
REMARK   60  A    between atoms: _145  and  _147
REMARK   61  A    between atoms: _147  and  _148
REMARK   62  A    between atoms: _147  and  _150
REMARK   63  A    between atoms: _150  and  _151
REMARK   64  A    between atoms: _156  and  _157
REMARK   65  A    between atoms: _159  and  _161
REMARK   66  A    between atoms: _161  and  _162
REMARK   67  A    between atoms: _161  and  _164
REMARK   68  A    between atoms: _164  and  _165
REMARK   69  A    between atoms: _165  and  _166
REMARK   70  A    between atoms: _168  and  _170
REMARK   71  A    between atoms: _170  and  _171
REMARK   72  A    between atoms: _170  and  _173
REMARK   73  A    between atoms: _173  and  _174
REMARK   74  A    between atoms: _177  and  _179
REMARK   75  A    between atoms: _179  and  _180
REMARK   76  A    between atoms: _179  and  _182
REMARK   77  A    between atoms: _182  and  _183
REMARK   78  A    between atoms: _186  and  _188
REMARK   79  A    between atoms: _188  and  _189
REMARK   80  A    between atoms: _188  and  _191
REMARK   81  A    between atoms: _191  and  _192
REMARK   82  A    between atoms: _195  and  _197
REMARK   83  A    between atoms: _197  and  _198
REMARK   84  A    between atoms: _197  and  _200
REMARK   85  A    between atoms: _200  and  _201
REMARK   86  A    between atoms: _204  and  _206
REMARK   87  A    between atoms: _206  and  _207
REMARK   88  A    between atoms: _206  and  _209
REMARK   89  A    between atoms: _209  and  _210
REMARK   90  A    between atoms: _217  and  _218
REMARK   91  A    between atoms: _223  and  _225
REMARK   92  A    between atoms: _225  and  _226
REMARK   93  A    between atoms: _225  and  _228
REMARK   94  A    between atoms: _228  and  _229
REMARK   95  A    between atoms: _234  and  _236
REMARK   96  A    between atoms: _236  and  _237
REMARK   97  A    between atoms: _236  and  _239
REMARK   98  A    between atoms: _239  and  _240
REMARK   99  A    between atoms: _242  and  _244
REMARK  100  A    between atoms: _244  and  _245
REMARK  101  A    between atoms: _244  and  _247
REMARK  102  A    between atoms: _247  and  _248
REMARK  103  A    between atoms: _248  and  _249
REMARK  104  A    between atoms: _254  and  _256
REMARK  105  A    between atoms: _256  and  _257
REMARK  106  A    between atoms: _256  and  _259
REMARK  107  A    between atoms: _259  and  _260
REMARK  108  A    between atoms: _262  and  _264
REMARK  109  A    between atoms: _264  and  _265
REMARK  110  A    between atoms: _267  and  _269
REMARK  111  A    between atoms: _269  and  _270
REMARK  112  A    between atoms: _269  and  _272
REMARK  113  A    between atoms: _272  and  _273
REMARK  114  A    between atoms: _276  and  _278
REMARK  115  A    between atoms: _278  and  _279
REMARK  116  A    between atoms: _278  and  _281
REMARK  117  A    between atoms: _281  and  _282
REMARK  118  A    between atoms: _287  and  _289
REMARK  119  A    between atoms: _289  and  _290
REMARK  120  A    between atoms: _289  and  _292
REMARK  121  A    between atoms: _292  and  _293
REMARK  122  A    between atoms: _296  and  _298
REMARK  123  A    between atoms: _298  and  _299
REMARK  124  A    between atoms: _302  and  _304
REMARK  125  A    between atoms: _304  and  _305
REMARK  126  A    between atoms: _304  and  _307
REMARK  127  A    between atoms: _307  and  _308
REMARK  128  A    between atoms: _313  and  _314
REMARK  129  A    between atoms: _316  and  _318
REMARK  130  A    between atoms: _318  and  _319
REMARK  131  A    between atoms: _318  and  _321
REMARK  132  A    between atoms: _321  and  _322
REMARK  133  A    between atoms: _327  and  _328
REMARK  134  A    between atoms: _330  and  _332
REMARK  135  A    between atoms: _332  and  _333
REMARK  136  A    between atoms: _332  and  _335
REMARK  137  A    between atoms: _335  and  _336
REMARK  138  A    between atoms: _336  and  _337
REMARK  139  A    between atoms: _342  and  _344
REMARK  140  A    between atoms: _344  and  _345
REMARK  141  A    between atoms: _344  and  _347
REMARK  142  A    between atoms: _350  and  _352
REMARK  143  A    between atoms: _352  and  _353
REMARK  144  A    between atoms: _352  and  _355
REMARK  145  A    between atoms: _358  and  _360
REMARK  146  A    between atoms: _360  and  _361
REMARK  147  A    between atoms: _360  and  _363
REMARK  148  A    between atoms: _363  and  _364
REMARK  149  A    between atoms: _364  and  _365
REMARK  150  A    between atoms: _365  and  _366
REMARK  151  A    between atoms: _375  and  _377
REMARK  152  A    between atoms: _377  and  _378
REMARK  153  A    between atoms: _381  and  _383
REMARK  154  A    between atoms: _383  and  _384
REMARK  155  A    between atoms: _383  and  _386
REMARK  156  A    between atoms: _386  and  _387
REMARK  157  A    between atoms: _389  and  _391
REMARK  158  A    between atoms: _391  and  _392
REMARK  159  A    between atoms: _391  and  _394
REMARK  160  A    between atoms: _394  and  _395
REMARK  161  A    between atoms: _400  and  _402
REMARK  162  A    between atoms: _402  and  _403
REMARK  163  A    between atoms: _402  and  _405
REMARK  164  A    between atoms: _405  and  _406
REMARK  165  A    between atoms: _416  and  _418
REMARK  166  A    between atoms: _418  and  _419
REMARK  167  A    between atoms: _418  and  _421
REMARK  168  A    between atoms: _421  and  _422
REMARK  169  A    between atoms: _425  and  _427
REMARK  170  A    between atoms: _427  and  _428
REMARK  171  A    between atoms: _427  and  _430
REMARK  172  A    between atoms: _430  and  _431
REMARK  173  A    between atoms: _436  and  _437
REMARK  174  A    between atoms: _439  and  _441
REMARK  175  A    between atoms: _441  and  _442
REMARK  176  A    between atoms: _444  and  _446
REMARK  177  A    between atoms: _446  and  _447
REMARK  178  A    between atoms: _446  and  _449
REMARK  179  A    between atoms: _449  and  _450
REMARK  180  A    between atoms: _460  and  _462
REMARK  181  A    between atoms: _462  and  _463
REMARK  182  A    between atoms: _462  and  _465
REMARK  183  A    between atoms: _465  and  _466
REMARK  184  A    between atoms: _468  and  _470
REMARK  185  A    between atoms: _470  and  _471
REMARK  186  A    between atoms: _473  and  _475
REMARK  187  A    between atoms: _475  and  _476
REMARK  188  A    between atoms: _475  and  _478
REMARK  189  A    between atoms: _478  and  _479
REMARK  190  A    between atoms: _482  and  _484
REMARK  191  A    between atoms: _484  and  _485
REMARK  192  A    between atoms: _484  and  _487
REMARK  193  A    between atoms: _487  and  _488
REMARK  194  A    between atoms: _493  and  _495
REMARK  195  A    between atoms: _495  and  _496
REMARK  196  A    between atoms: _495  and  _498
REMARK  197  A    between atoms: _498  and  _499
REMARK  198  A    between atoms: _504  and  _506
REMARK  199  A    between atoms: _506  and  _507
REMARK  200  A    between atoms: _506  and  _509
REMARK  201  A    between atoms: _509  and  _510
REMARK  202  A    between atoms: _517  and  _518
REMARK  203  A    between atoms: _523  and  _525
REMARK  204  A    between atoms: _525  and  _526
REMARK  205  A    between atoms: _525  and  _528
REMARK  206  A    between atoms: _528  and  _529
REMARK  207  A    between atoms: _532  and  _534
REMARK  208  A    between atoms: _534  and  _535
REMARK  209  A    between atoms: _534  and  _537
REMARK  210  A    between atoms: _537  and  _538
REMARK  211  A    between atoms: _540  and  _542
REMARK  212  A    between atoms: _542  and  _543
REMARK  213  A    between atoms: _542  and  _545
REMARK  214  A    between atoms: _545  and  _546
REMARK  215  A    between atoms: _551  and  _552
REMARK  216  A    between atoms: _554  and  _556
REMARK  217  A    between atoms: _556  and  _557
REMARK  218  A    between atoms: _556  and  _559
REMARK  219  A    between atoms: _559  and  _560
REMARK  220  A    between atoms: _562  and  _564
REMARK  221  A    between atoms: _564  and  _565
REMARK  222  A    between atoms: _564  and  _567
REMARK  223  A    between atoms: _567  and  _568
REMARK  224  A    between atoms: _571  and  _573
REMARK  225  A    between atoms: _573  and  _574
REMARK  226  A    between atoms: _573  and  _576
REMARK  227  A    between atoms: _576  and  _577
REMARK  228  A    between atoms: _582  and  _584
REMARK  229  A    between atoms: _584  and  _585
REMARK  230  A    between atoms: _584  and  _587
REMARK  231  A    between atoms: _587  and  _588
REMARK  232  A    between atoms: _594  and  _596
REMARK  233  A    between atoms: _596  and  _597
REMARK  234  A    between atoms: _601  and  _602
REMARK  235  A    between atoms: _607  and  _609
REMARK  236  A    between atoms: _609  and  _610
REMARK  237  A    between atoms: _609  and  _612
REMARK  238  A    between atoms: _612  and  _613
REMARK  239  A    between atoms: _618  and  _619
REMARK  240  A    between atoms: _621  and  _623
REMARK  241  A    between atoms: _623  and  _624
REMARK  242  A    between atoms: _623  and  _626
REMARK  243  A    between atoms: _626  and  _627
REMARK  244  A    between atoms: _627  and  _628
REMARK  245  A    between atoms: _628  and  _629
REMARK  246  A    between atoms: _629  and  _630
REMARK  247  A    between atoms: _634  and  _636
REMARK  248  A    between atoms: _636  and  _637
REMARK  249  A    between atoms: _636  and  _639
REMARK  250  A    between atoms: _639  and  _640
REMARK  251  A    between atoms: _640  and  _641
REMARK  252  A    between atoms: _646  and  _648
REMARK  253  A    between atoms: _648  and  _649
REMARK  254  A    between atoms: _648  and  _651
REMARK  255  A    between atoms: _651  and  _652
REMARK  256  A    between atoms: _655  and  _656
REMARK  257  A    between atoms: _661  and  _663
REMARK  258  A    between atoms: _663  and  _664
REMARK  259  A    between atoms: _663  and  _666
REMARK  260  A    between atoms: _666  and  _667
REMARK  261  A    between atoms: _673  and  _675
REMARK  262  A    between atoms: _675  and  _676
REMARK  263  A    between atoms: _678  and  _680
REMARK  264  A    between atoms: _680  and  _681
REMARK  265  A    between atoms: _680  and  _683
REMARK  266  A    between atoms: _683  and  _684
REMARK  267  A    between atoms: _689  and  _690
REMARK  268  A    between atoms: _692  and  _694
REMARK  269  A    between atoms: _694  and  _695
REMARK  270  A    between atoms: _694  and  _697
REMARK  271  A    between atoms: _697  and  _698
REMARK  272  A    between atoms: _701  and  _703
REMARK  273  A    between atoms: _703  and  _704
REMARK  274  A    between atoms: _703  and  _706
REMARK  275  A    between atoms: _706  and  _707
REMARK  276  A    between atoms: _712  and  _713
REMARK                            x       y       z     vdW  Elec       q    Type
REMARK                         _______ _______ _______ _____ _____    ______ ____
ROOT
ATOM      1  O   HOH     1      22.878 -17.234 -12.779  0.00  0.00    +0.000 OA
ENDROOT
TORSDOF 0
REMARK  Name = ../refined-set-2016/3m8u/3m8u_pocket.pdb
REMARK  276 active torsions:
REMARK  status: ('A' for Active; 'I' for Inactive)
REMARK    1  A    between atoms: _1  and  _3
REMARK    2  A    between atoms: _3  and  _4
REMARK    3  A    between atoms: _3  and  _6
REMARK    4  A    between atoms: _6  and  _7
REMARK    5  A    between atoms: _12  and  _14
REMARK    6  A    between atoms: _14  and  _15
REMARK    7  A    between atoms: _14  and  _17
REMARK    8  A    between atoms: _20  and  _22
REMARK    9  A    between atoms: _22  and  _23
REMARK   10  A    between atoms: _22  and  _25
REMARK   11  A    between atoms: _25  and  _26
REMARK   12  A    between atoms: _28  and  _30
REMARK   13  A    between atoms: _30  and  _31
REMARK   14  A    between atoms: _30  and  _33
REMARK   15  A    between atoms: _33  and  _34
REMARK   16  A    between atoms: _34  and  _35
REMARK   17  A    between atoms: _35  and  _36
REMARK   18  A    between atoms: _45  and  _47
REMARK   19  A    between atoms: _47  and  _48
REMARK   20  A    between atoms: _47  and  _50
REMARK   21  A    between atoms: _50  and  _51
REMARK   22  A    between atoms: _54  and  _56
REMARK   23  A    between atoms: _56  and  _57
REMARK   24  A    between atoms: _56  and  _59
REMARK   25  A    between atoms: _62  and  _64
REMARK   26  A    between atoms: _64  and  _65
REMARK   27  A    between atoms: _64  and  _67
REMARK   28  A    between atoms: _67  and  _68
REMARK   29  A    between atoms: _68  and  _69
REMARK   30  A    between atoms: _71  and  _73
REMARK   31  A    between atoms: _73  and  _74
REMARK   32  A    between atoms: _73  and  _76
REMARK   33  A    between atoms: _76  and  _77
REMARK   34  A    between atoms: _80  and  _82
REMARK   35  A    between atoms: _82  and  _83
REMARK   36  A    between atoms: _85  and  _87
REMARK   37  A    between atoms: _87  and  _88
REMARK   38  A    between atoms: _87  and  _90
REMARK   39  A    between atoms: _90  and  _91
REMARK   40  A    between atoms: _94  and  _96
REMARK   41  A    between atoms: _96  and  _97
REMARK   42  A    between atoms: _96  and  _99
REMARK   43  A    between atoms: _99  and  _100
REMARK   44  A    between atoms: _102  and  _104
REMARK   45  A    between atoms: _104  and  _105
REMARK   46  A    between atoms: _104  and  _107
REMARK   47  A    between atoms: _107  and  _108
REMARK   48  A    between atoms: _113  and  _114
REMARK   49  A    between atoms: _116  and  _118
REMARK   50  A    between atoms: _118  and  _119
REMARK   51  A    between atoms: _118  and  _121
REMARK   52  A    between atoms: _121  and  _122
REMARK   53  A    between atoms: _127  and  _129
REMARK   54  A    between atoms: _129  and  _130
REMARK   55  A    between atoms: _133  and  _135
REMARK   56  A    between atoms: _135  and  _136
REMARK   57  A    between atoms: _135  and  _138
REMARK   58  A    between atoms: _138  and  _139
REMARK   59  A    between atoms: _139  and  _140
REMARK   60  A    between atoms: _145  and  _147
REMARK   61  A    between atoms: _147  and  _148
REMARK   62  A    between atoms: _147  and  _150
REMARK   63  A    between atoms: _150  and  _151
REMARK   64  A    between atoms: _156  and  _157
REMARK   65  A    between atoms: _159  and  _161
REMARK   66  A    between atoms: _161  and  _162
REMARK   67  A    between atoms: _161  and  _164
REMARK   68  A    between atoms: _164  and  _165
REMARK   69  A    between atoms: _165  and  _166
REMARK   70  A    between atoms: _168  and  _170
REMARK   71  A    between atoms: _170  and  _171
REMARK   72  A    between atoms: _170  and  _173
REMARK   73  A    between atoms: _173  and  _174
REMARK   74  A    between atoms: _177  and  _179
REMARK   75  A    between atoms: _179  and  _180
REMARK   76  A    between atoms: _179  and  _182
REMARK   77  A    between atoms: _182  and  _183
REMARK   78  A    between atoms: _186  and  _188
REMARK   79  A    between atoms: _188  and  _189
REMARK   80  A    between atoms: _188  and  _191
REMARK   81  A    between atoms: _191  and  _192
REMARK   82  A    between atoms: _195  and  _197
REMARK   83  A    between atoms: _197  and  _198
REMARK   84  A    between atoms: _197  and  _200
REMARK   85  A    between atoms: _200  and  _201
REMARK   86  A    between atoms: _204  and  _206
REMARK   87  A    between atoms: _206  and  _207
REMARK   88  A    between atoms: _206  and  _209
REMARK   89  A    between atoms: _209  and  _210
REMARK   90  A    between atoms: _217  and  _218
REMARK   91  A    between atoms: _223  and  _225
REMARK   92  A    between atoms: _225  and  _226
REMARK   93  A    between atoms: _225  and  _228
REMARK   94  A    between atoms: _228  and  _229
REMARK   95  A    between atoms: _234  and  _236
REMARK   96  A    between atoms: _236  and  _237
REMARK   97  A    between atoms: _236  and  _239
REMARK   98  A    between atoms: _239  and  _240
REMARK   99  A    between atoms: _242  and  _244
REMARK  100  A    between atoms: _244  and  _245
REMARK  101  A    between atoms: _244  and  _247
REMARK  102  A    between atoms: _247  and  _248
REMARK  103  A    between atoms: _248  and  _249
REMARK  104  A    between atoms: _254  and  _256
REMARK  105  A    between atoms: _256  and  _257
REMARK  106  A    between atoms: _256  and  _259
REMARK  107  A    between atoms: _259  and  _260
REMARK  108  A    between atoms: _262  and  _264
REMARK  109  A    between atoms: _264  and  _265
REMARK  110  A    between atoms: _267  and  _269
REMARK  111  A    between atoms: _269  and  _270
REMARK  112  A    between atoms: _269  and  _272
REMARK  113  A    between atoms: _272  and  _273
REMARK  114  A    between atoms: _276  and  _278
REMARK  115  A    between atoms: _278  and  _279
REMARK  116  A    between atoms: _278  and  _281
REMARK  117  A    between atoms: _281  and  _282
REMARK  118  A    between atoms: _287  and  _289
REMARK  119  A    between atoms: _289  and  _290
REMARK  120  A    between atoms: _289  and  _292
REMARK  121  A    between atoms: _292  and  _293
REMARK  122  A    between atoms: _296  and  _298
REMARK  123  A    between atoms: _298  and  _299
REMARK  124  A    between atoms: _302  and  _304
REMARK  125  A    between atoms: _304  and  _305
REMARK  126  A    between atoms: _304  and  _307
REMARK  127  A    between atoms: _307  and  _308
REMARK  128  A    between atoms: _313  and  _314
REMARK  129  A    between atoms: _316  and  _318
REMARK  130  A    between atoms: _318  and  _319
REMARK  131  A    between atoms: _318  and  _321
REMARK  132  A    between atoms: _321  and  _322
REMARK  133  A    between atoms: _327  and  _328
REMARK  134  A    between atoms: _330  and  _332
REMARK  135  A    between atoms: _332  and  _333
REMARK  136  A    between atoms: _332  and  _335
REMARK  137  A    between atoms: _335  and  _336
REMARK  138  A    between atoms: _336  and  _337
REMARK  139  A    between atoms: _342  and  _344
REMARK  140  A    between atoms: _344  and  _345
REMARK  141  A    between atoms: _344  and  _347
REMARK  142  A    between atoms: _350  and  _352
REMARK  143  A    between atoms: _352  and  _353
REMARK  144  A    between atoms: _352  and  _355
REMARK  145  A    between atoms: _358  and  _360
REMARK  146  A    between atoms: _360  and  _361
REMARK  147  A    between atoms: _360  and  _363
REMARK  148  A    between atoms: _363  and  _364
REMARK  149  A    between atoms: _364  and  _365
REMARK  150  A    between atoms: _365  and  _366
REMARK  151  A    between atoms: _375  and  _377
REMARK  152  A    between atoms: _377  and  _378
REMARK  153  A    between atoms: _381  and  _383
REMARK  154  A    between atoms: _383  and  _384
REMARK  155  A    between atoms: _383  and  _386
REMARK  156  A    between atoms: _386  and  _387
REMARK  157  A    between atoms: _389  and  _391
REMARK  158  A    between atoms: _391  and  _392
REMARK  159  A    between atoms: _391  and  _394
REMARK  160  A    between atoms: _394  and  _395
REMARK  161  A    between atoms: _400  and  _402
REMARK  162  A    between atoms: _402  and  _403
REMARK  163  A    between atoms: _402  and  _405
REMARK  164  A    between atoms: _405  and  _406
REMARK  165  A    between atoms: _416  and  _418
REMARK  166  A    between atoms: _418  and  _419
REMARK  167  A    between atoms: _418  and  _421
REMARK  168  A    between atoms: _421  and  _422
REMARK  169  A    between atoms: _425  and  _427
REMARK  170  A    between atoms: _427  and  _428
REMARK  171  A    between atoms: _427  and  _430
REMARK  172  A    between atoms: _430  and  _431
REMARK  173  A    between atoms: _436  and  _437
REMARK  174  A    between atoms: _439  and  _441
REMARK  175  A    between atoms: _441  and  _442
REMARK  176  A    between atoms: _444  and  _446
REMARK  177  A    between atoms: _446  and  _447
REMARK  178  A    between atoms: _446  and  _449
REMARK  179  A    between atoms: _449  and  _450
REMARK  180  A    between atoms: _460  and  _462
REMARK  181  A    between atoms: _462  and  _463
REMARK  182  A    between atoms: _462  and  _465
REMARK  183  A    between atoms: _465  and  _466
REMARK  184  A    between atoms: _468  and  _470
REMARK  185  A    between atoms: _470  and  _471
REMARK  186  A    between atoms: _473  and  _475
REMARK  187  A    between atoms: _475  and  _476
REMARK  188  A    between atoms: _475  and  _478
REMARK  189  A    between atoms: _478  and  _479
REMARK  190  A    between atoms: _482  and  _484
REMARK  191  A    between atoms: _484  and  _485
REMARK  192  A    between atoms: _484  and  _487
REMARK  193  A    between atoms: _487  and  _488
REMARK  194  A    between atoms: _493  and  _495
REMARK  195  A    between atoms: _495  and  _496
REMARK  196  A    between atoms: _495  and  _498
REMARK  197  A    between atoms: _498  and  _499
REMARK  198  A    between atoms: _504  and  _506
REMARK  199  A    between atoms: _506  and  _507
REMARK  200  A    between atoms: _506  and  _509
REMARK  201  A    between atoms: _509  and  _510
REMARK  202  A    between atoms: _517  and  _518
REMARK  203  A    between atoms: _523  and  _525
REMARK  204  A    between atoms: _525  and  _526
REMARK  205  A    between atoms: _525  and  _528
REMARK  206  A    between atoms: _528  and  _529
REMARK  207  A    between atoms: _532  and  _534
REMARK  208  A    between atoms: _534  and  _535
REMARK  209  A    between atoms: _534  and  _537
REMARK  210  A    between atoms: _537  and  _538
REMARK  211  A    between atoms: _540  and  _542
REMARK  212  A    between atoms: _542  and  _543
REMARK  213  A    between atoms: _542  and  _545
REMARK  214  A    between atoms: _545  and  _546
REMARK  215  A    between atoms: _551  and  _552
REMARK  216  A    between atoms: _554  and  _556
REMARK  217  A    between atoms: _556  and  _557
REMARK  218  A    between atoms: _556  and  _559
REMARK  219  A    between atoms: _559  and  _560
REMARK  220  A    between atoms: _562  and  _564
REMARK  221  A    between atoms: _564  and  _565
REMARK  222  A    between atoms: _564  and  _567
REMARK  223  A    between atoms: _567  and  _568
REMARK  224  A    between atoms: _571  and  _573
REMARK  225  A    between atoms: _573  and  _574
REMARK  226  A    between atoms: _573  and  _576
REMARK  227  A    between atoms: _576  and  _577
REMARK  228  A    between atoms: _582  and  _584
REMARK  229  A    between atoms: _584  and  _585
REMARK  230  A    between atoms: _584  and  _587
REMARK  231  A    between atoms: _587  and  _588
REMARK  232  A    between atoms: _594  and  _596
REMARK  233  A    between atoms: _596  and  _597
REMARK  234  A    between atoms: _601  and  _602
REMARK  235  A    between atoms: _607  and  _609
REMARK  236  A    between atoms: _609  and  _610
REMARK  237  A    between atoms: _609  and  _612
REMARK  238  A    between atoms: _612  and  _613
REMARK  239  A    between atoms: _618  and  _619
REMARK  240  A    between atoms: _621  and  _623
REMARK  241  A    between atoms: _623  and  _624
REMARK  242  A    between atoms: _623  and  _626
REMARK  243  A    between atoms: _626  and  _627
REMARK  244  A    between atoms: _627  and  _628
REMARK  245  A    between atoms: _628  and  _629
REMARK  246  A    between atoms: _629  and  _630
REMARK  247  A    between atoms: _634  and  _636
REMARK  248  A    between atoms: _636  and  _637
REMARK  249  A    between atoms: _636  and  _639
REMARK  250  A    between atoms: _639  and  _640
REMARK  251  A    between atoms: _640  and  _641
REMARK  252  A    between atoms: _646  and  _648
REMARK  253  A    between atoms: _648  and  _649
REMARK  254  A    between atoms: _648  and  _651
REMARK  255  A    between atoms: _651  and  _652
REMARK  256  A    between atoms: _655  and  _656
REMARK  257  A    between atoms: _661  and  _663
REMARK  258  A    between atoms: _663  and  _664
REMARK  259  A    between atoms: _663  and  _666
REMARK  260  A    between atoms: _666  and  _667
REMARK  261  A    between atoms: _673  and  _675
REMARK  262  A    between atoms: _675  and  _676
REMARK  263  A    between atoms: _678  and  _680
REMARK  264  A    between atoms: _680  and  _681
REMARK  265  A    between atoms: _680  and  _683
REMARK  266  A    between atoms: _683  and  _684
REMARK  267  A    between atoms: _689  and  _690
REMARK  268  A    between atoms: _692  and  _694
REMARK  269  A    between atoms: _694  and  _695
REMARK  270  A    between atoms: _694  and  _697
REMARK  271  A    between atoms: _697  and  _698
REMARK  272  A    between atoms: _701  and  _703
REMARK  273  A    between atoms: _703  and  _704
REMARK  274  A    between atoms: _703  and  _706
REMARK  275  A    between atoms: _706  and  _707
REMARK  276  A    between atoms: _712  and  _713
REMARK                            x       y       z     vdW  Elec       q    Type
REMARK                         _______ _______ _______ _____ _____    ______ ____
ROOT
ATOM      1  O   HOH     1      17.163 -22.323  -8.758  0.00  0.00    +0.000 OA
ENDROOT
TORSDOF 0
REMARK  Name = ../refined-set-2016/3m8u/3m8u_pocket.pdb
REMARK  276 active torsions:
REMARK  status: ('A' for Active; 'I' for Inactive)
REMARK    1  A    between atoms: _1  and  _3
REMARK    2  A    between atoms: _3  and  _4
REMARK    3  A    between atoms: _3  and  _6
REMARK    4  A    between atoms: _6  and  _7
REMARK    5  A    between atoms: _12  and  _14
REMARK    6  A    between atoms: _14  and  _15
REMARK    7  A    between atoms: _14  and  _17
REMARK    8  A    between atoms: _20  and  _22
REMARK    9  A    between atoms: _22  and  _23
REMARK   10  A    between atoms: _22  and  _25
REMARK   11  A    between atoms: _25  and  _26
REMARK   12  A    between atoms: _28  and  _30
REMARK   13  A    between atoms: _30  and  _31
REMARK   14  A    between atoms: _30  and  _33
REMARK   15  A    between atoms: _33  and  _34
REMARK   16  A    between atoms: _34  and  _35
REMARK   17  A    between atoms: _35  and  _36
REMARK   18  A    between atoms: _45  and  _47
REMARK   19  A    between atoms: _47  and  _48
REMARK   20  A    between atoms: _47  and  _50
REMARK   21  A    between atoms: _50  and  _51
REMARK   22  A    between atoms: _54  and  _56
REMARK   23  A    between atoms: _56  and  _57
REMARK   24  A    between atoms: _56  and  _59
REMARK   25  A    between atoms: _62  and  _64
REMARK   26  A    between atoms: _64  and  _65
REMARK   27  A    between atoms: _64  and  _67
REMARK   28  A    between atoms: _67  and  _68
REMARK   29  A    between atoms: _68  and  _69
REMARK   30  A    between atoms: _71  and  _73
REMARK   31  A    between atoms: _73  and  _74
REMARK   32  A    between atoms: _73  and  _76
REMARK   33  A    between atoms: _76  and  _77
REMARK   34  A    between atoms: _80  and  _82
REMARK   35  A    between atoms: _82  and  _83
REMARK   36  A    between atoms: _85  and  _87
REMARK   37  A    between atoms: _87  and  _88
REMARK   38  A    between atoms: _87  and  _90
REMARK   39  A    between atoms: _90  and  _91
REMARK   40  A    between atoms: _94  and  _96
REMARK   41  A    between atoms: _96  and  _97
REMARK   42  A    between atoms: _96  and  _99
REMARK   43  A    between atoms: _99  and  _100
REMARK   44  A    between atoms: _102  and  _104
REMARK   45  A    between atoms: _104  and  _105
REMARK   46  A    between atoms: _104  and  _107
REMARK   47  A    between atoms: _107  and  _108
REMARK   48  A    between atoms: _113  and  _114
REMARK   49  A    between atoms: _116  and  _118
REMARK   50  A    between atoms: _118  and  _119
REMARK   51  A    between atoms: _118  and  _121
REMARK   52  A    between atoms: _121  and  _122
REMARK   53  A    between atoms: _127  and  _129
REMARK   54  A    between atoms: _129  and  _130
REMARK   55  A    between atoms: _133  and  _135
REMARK   56  A    between atoms: _135  and  _136
REMARK   57  A    between atoms: _135  and  _138
REMARK   58  A    between atoms: _138  and  _139
REMARK   59  A    between atoms: _139  and  _140
REMARK   60  A    between atoms: _145  and  _147
REMARK   61  A    between atoms: _147  and  _148
REMARK   62  A    between atoms: _147  and  _150
REMARK   63  A    between atoms: _150  and  _151
REMARK   64  A    between atoms: _156  and  _157
REMARK   65  A    between atoms: _159  and  _161
REMARK   66  A    between atoms: _161  and  _162
REMARK   67  A    between atoms: _161  and  _164
REMARK   68  A    between atoms: _164  and  _165
REMARK   69  A    between atoms: _165  and  _166
REMARK   70  A    between atoms: _168  and  _170
REMARK   71  A    between atoms: _170  and  _171
REMARK   72  A    between atoms: _170  and  _173
REMARK   73  A    between atoms: _173  and  _174
REMARK   74  A    between atoms: _177  and  _179
REMARK   75  A    between atoms: _179  and  _180
REMARK   76  A    between atoms: _179  and  _182
REMARK   77  A    between atoms: _182  and  _183
REMARK   78  A    between atoms: _186  and  _188
REMARK   79  A    between atoms: _188  and  _189
REMARK   80  A    between atoms: _188  and  _191
REMARK   81  A    between atoms: _191  and  _192
REMARK   82  A    between atoms: _195  and  _197
REMARK   83  A    between atoms: _197  and  _198
REMARK   84  A    between atoms: _197  and  _200
REMARK   85  A    between atoms: _200  and  _201
REMARK   86  A    between atoms: _204  and  _206
REMARK   87  A    between atoms: _206  and  _207
REMARK   88  A    between atoms: _206  and  _209
REMARK   89  A    between atoms: _209  and  _210
REMARK   90  A    between atoms: _217  and  _218
REMARK   91  A    between atoms: _223  and  _225
REMARK   92  A    between atoms: _225  and  _226
REMARK   93  A    between atoms: _225  and  _228
REMARK   94  A    between atoms: _228  and  _229
REMARK   95  A    between atoms: _234  and  _236
REMARK   96  A    between atoms: _236  and  _237
REMARK   97  A    between atoms: _236  and  _239
REMARK   98  A    between atoms: _239  and  _240
REMARK   99  A    between atoms: _242  and  _244
REMARK  100  A    between atoms: _244  and  _245
REMARK  101  A    between atoms: _244  and  _247
REMARK  102  A    between atoms: _247  and  _248
REMARK  103  A    between atoms: _248  and  _249
REMARK  104  A    between atoms: _254  and  _256
REMARK  105  A    between atoms: _256  and  _257
REMARK  106  A    between atoms: _256  and  _259
REMARK  107  A    between atoms: _259  and  _260
REMARK  108  A    between atoms: _262  and  _264
REMARK  109  A    between atoms: _264  and  _265
REMARK  110  A    between atoms: _267  and  _269
REMARK  111  A    between atoms: _269  and  _270
REMARK  112  A    between atoms: _269  and  _272
REMARK  113  A    between atoms: _272  and  _273
REMARK  114  A    between atoms: _276  and  _278
REMARK  115  A    between atoms: _278  and  _279
REMARK  116  A    between atoms: _278  and  _281
REMARK  117  A    between atoms: _281  and  _282
REMARK  118  A    between atoms: _287  and  _289
REMARK  119  A    between atoms: _289  and  _290
REMARK  120  A    between atoms: _289  and  _292
REMARK  121  A    between atoms: _292  and  _293
REMARK  122  A    between atoms: _296  and  _298
REMARK  123  A    between atoms: _298  and  _299
REMARK  124  A    between atoms: _302  and  _304
REMARK  125  A    between atoms: _304  and  _305
REMARK  126  A    between atoms: _304  and  _307
REMARK  127  A    between atoms: _307  and  _308
REMARK  128  A    between atoms: _313  and  _314
REMARK  129  A    between atoms: _316  and  _318
REMARK  130  A    between atoms: _318  and  _319
REMARK  131  A    between atoms: _318  and  _321
REMARK  132  A    between atoms: _321  and  _322
REMARK  133  A    between atoms: _327  and  _328
REMARK  134  A    between atoms: _330  and  _332
REMARK  135  A    between atoms: _332  and  _333
REMARK  136  A    between atoms: _332  and  _335
REMARK  137  A    between atoms: _335  and  _336
REMARK  138  A    between atoms: _336  and  _337
REMARK  139  A    between atoms: _342  and  _344
REMARK  140  A    between atoms: _344  and  _345
REMARK  141  A    between atoms: _344  and  _347
REMARK  142  A    between atoms: _350  and  _352
REMARK  143  A    between atoms: _352  and  _353
REMARK  144  A    between atoms: _352  and  _355
REMARK  145  A    between atoms: _358  and  _360
REMARK  146  A    between atoms: _360  and  _361
REMARK  147  A    between atoms: _360  and  _363
REMARK  148  A    between atoms: _363  and  _364
REMARK  149  A    between atoms: _364  and  _365
REMARK  150  A    between atoms: _365  and  _366
REMARK  151  A    between atoms: _375  and  _377
REMARK  152  A    between atoms: _377  and  _378
REMARK  153  A    between atoms: _381  and  _383
REMARK  154  A    between atoms: _383  and  _384
REMARK  155  A    between atoms: _383  and  _386
REMARK  156  A    between atoms: _386  and  _387
REMARK  157  A    between atoms: _389  and  _391
REMARK  158  A    between atoms: _391  and  _392
REMARK  159  A    between atoms: _391  and  _394
REMARK  160  A    between atoms: _394  and  _395
REMARK  161  A    between atoms: _400  and  _402
REMARK  162  A    between atoms: _402  and  _403
REMARK  163  A    between atoms: _402  and  _405
REMARK  164  A    between atoms: _405  and  _406
REMARK  165  A    between atoms: _416  and  _418
REMARK  166  A    between atoms: _418  and  _419
REMARK  167  A    between atoms: _418  and  _421
REMARK  168  A    between atoms: _421  and  _422
REMARK  169  A    between atoms: _425  and  _427
REMARK  170  A    between atoms: _427  and  _428
REMARK  171  A    between atoms: _427  and  _430
REMARK  172  A    between atoms: _430  and  _431
REMARK  173  A    between atoms: _436  and  _437
REMARK  174  A    between atoms: _439  and  _441
REMARK  175  A    between atoms: _441  and  _442
REMARK  176  A    between atoms: _444  and  _446
REMARK  177  A    between atoms: _446  and  _447
REMARK  178  A    between atoms: _446  and  _449
REMARK  179  A    between atoms: _449  and  _450
REMARK  180  A    between atoms: _460  and  _462
REMARK  181  A    between atoms: _462  and  _463
REMARK  182  A    between atoms: _462  and  _465
REMARK  183  A    between atoms: _465  and  _466
REMARK  184  A    between atoms: _468  and  _470
REMARK  185  A    between atoms: _470  and  _471
REMARK  186  A    between atoms: _473  and  _475
REMARK  187  A    between atoms: _475  and  _476
REMARK  188  A    between atoms: _475  and  _478
REMARK  189  A    between atoms: _478  and  _479
REMARK  190  A    between atoms: _482  and  _484
REMARK  191  A    between atoms: _484  and  _485
REMARK  192  A    between atoms: _484  and  _487
REMARK  193  A    between atoms: _487  and  _488
REMARK  194  A    between atoms: _493  and  _495
REMARK  195  A    between atoms: _495  and  _496
REMARK  196  A    between atoms: _495  and  _498
REMARK  197  A    between atoms: _498  and  _499
REMARK  198  A    between atoms: _504  and  _506
REMARK  199  A    between atoms: _506  and  _507
REMARK  200  A    between atoms: _506  and  _509
REMARK  201  A    between atoms: _509  and  _510
REMARK  202  A    between atoms: _517  and  _518
REMARK  203  A    between atoms: _523  and  _525
REMARK  204  A    between atoms: _525  and  _526
REMARK  205  A    between atoms: _525  and  _528
REMARK  206  A    between atoms: _528  and  _529
REMARK  207  A    between atoms: _532  and  _534
REMARK  208  A    between atoms: _534  and  _535
REMARK  209  A    between atoms: _534  and  _537
REMARK  210  A    between atoms: _537  and  _538
REMARK  211  A    between atoms: _540  and  _542
REMARK  212  A    between atoms: _542  and  _543
REMARK  213  A    between atoms: _542  and  _545
REMARK  214  A    between atoms: _545  and  _546
REMARK  215  A    between atoms: _551  and  _552
REMARK  216  A    between atoms: _554  and  _556
REMARK  217  A    between atoms: _556  and  _557
REMARK  218  A    between atoms: _556  and  _559
REMARK  219  A    between atoms: _559  and  _560
REMARK  220  A    between atoms: _562  and  _564
REMARK  221  A    between atoms: _564  and  _565
REMARK  222  A    between atoms: _564  and  _567
REMARK  223  A    between atoms: _567  and  _568
REMARK  224  A    between atoms: _571  and  _573
REMARK  225  A    between atoms: _573  and  _574
REMARK  226  A    between atoms: _573  and  _576
REMARK  227  A    between atoms: _576  and  _577
REMARK  228  A    between atoms: _582  and  _584
REMARK  229  A    between atoms: _584  and  _585
REMARK  230  A    between atoms: _584  and  _587
REMARK  231  A    between atoms: _587  and  _588
REMARK  232  A    between atoms: _594  and  _596
REMARK  233  A    between atoms: _596  and  _597
REMARK  234  A    between atoms: _601  and  _602
REMARK  235  A    between atoms: _607  and  _609
REMARK  236  A    between atoms: _609  and  _610
REMARK  237  A    between atoms: _609  and  _612
REMARK  238  A    between atoms: _612  and  _613
REMARK  239  A    between atoms: _618  and  _619
REMARK  240  A    between atoms: _621  and  _623
REMARK  241  A    between atoms: _623  and  _624
REMARK  242  A    between atoms: _623  and  _626
REMARK  243  A    between atoms: _626  and  _627
REMARK  244  A    between atoms: _627  and  _628
REMARK  245  A    between atoms: _628  and  _629
REMARK  246  A    between atoms: _629  and  _630
REMARK  247  A    between atoms: _634  and  _636
REMARK  248  A    between atoms: _636  and  _637
REMARK  249  A    between atoms: _636  and  _639
REMARK  250  A    between atoms: _639  and  _640
REMARK  251  A    between atoms: _640  and  _641
REMARK  252  A    between atoms: _646  and  _648
REMARK  253  A    between atoms: _648  and  _649
REMARK  254  A    between atoms: _648  and  _651
REMARK  255  A    between atoms: _651  and  _652
REMARK  256  A    between atoms: _655  and  _656
REMARK  257  A    between atoms: _661  and  _663
REMARK  258  A    between atoms: _663  and  _664
REMARK  259  A    between atoms: _663  and  _666
REMARK  260  A    between atoms: _666  and  _667
REMARK  261  A    between atoms: _673  and  _675
REMARK  262  A    between atoms: _675  and  _676
REMARK  263  A    between atoms: _678  and  _680
REMARK  264  A    between atoms: _680  and  _681
REMARK  265  A    between atoms: _680  and  _683
REMARK  266  A    between atoms: _683  and  _684
REMARK  267  A    between atoms: _689  and  _690
REMARK  268  A    between atoms: _692  and  _694
REMARK  269  A    between atoms: _694  and  _695
REMARK  270  A    between atoms: _694  and  _697
REMARK  271  A    between atoms: _697  and  _698
REMARK  272  A    between atoms: _701  and  _703
REMARK  273  A    between atoms: _703  and  _704
REMARK  274  A    between atoms: _703  and  _706
REMARK  275  A    between atoms: _706  and  _707
REMARK  276  A    between atoms: _712  and  _713
REMARK                            x       y       z     vdW  Elec       q    Type
REMARK                         _______ _______ _______ _____ _____    ______ ____
ROOT
ATOM      1  O   HOH     1       3.385  -6.954 -15.093  0.00  0.00    +0.000 OA
ENDROOT
TORSDOF 0
REMARK  Name = ../refined-set-2016/3m8u/3m8u_pocket.pdb
REMARK  276 active torsions:
REMARK  status: ('A' for Active; 'I' for Inactive)
REMARK    1  A    between atoms: _1  and  _3
REMARK    2  A    between atoms: _3  and  _4
REMARK    3  A    between atoms: _3  and  _6
REMARK    4  A    between atoms: _6  and  _7
REMARK    5  A    between atoms: _12  and  _14
REMARK    6  A    between atoms: _14  and  _15
REMARK    7  A    between atoms: _14  and  _17
REMARK    8  A    between atoms: _20  and  _22
REMARK    9  A    between atoms: _22  and  _23
REMARK   10  A    between atoms: _22  and  _25
REMARK   11  A    between atoms: _25  and  _26
REMARK   12  A    between atoms: _28  and  _30
REMARK   13  A    between atoms: _30  and  _31
REMARK   14  A    between atoms: _30  and  _33
REMARK   15  A    between atoms: _33  and  _34
REMARK   16  A    between atoms: _34  and  _35
REMARK   17  A    between atoms: _35  and  _36
REMARK   18  A    between atoms: _45  and  _47
REMARK   19  A    between atoms: _47  and  _48
REMARK   20  A    between atoms: _47  and  _50
REMARK   21  A    between atoms: _50  and  _51
REMARK   22  A    between atoms: _54  and  _56
REMARK   23  A    between atoms: _56  and  _57
REMARK   24  A    between atoms: _56  and  _59
REMARK   25  A    between atoms: _62  and  _64
REMARK   26  A    between atoms: _64  and  _65
REMARK   27  A    between atoms: _64  and  _67
REMARK   28  A    between atoms: _67  and  _68
REMARK   29  A    between atoms: _68  and  _69
REMARK   30  A    between atoms: _71  and  _73
REMARK   31  A    between atoms: _73  and  _74
REMARK   32  A    between atoms: _73  and  _76
REMARK   33  A    between atoms: _76  and  _77
REMARK   34  A    between atoms: _80  and  _82
REMARK   35  A    between atoms: _82  and  _83
REMARK   36  A    between atoms: _85  and  _87
REMARK   37  A    between atoms: _87  and  _88
REMARK   38  A    between atoms: _87  and  _90
REMARK   39  A    between atoms: _90  and  _91
REMARK   40  A    between atoms: _94  and  _96
REMARK   41  A    between atoms: _96  and  _97
REMARK   42  A    between atoms: _96  and  _99
REMARK   43  A    between atoms: _99  and  _100
REMARK   44  A    between atoms: _102  and  _104
REMARK   45  A    between atoms: _104  and  _105
REMARK   46  A    between atoms: _104  and  _107
REMARK   47  A    between atoms: _107  and  _108
REMARK   48  A    between atoms: _113  and  _114
REMARK   49  A    between atoms: _116  and  _118
REMARK   50  A    between atoms: _118  and  _119
REMARK   51  A    between atoms: _118  and  _121
REMARK   52  A    between atoms: _121  and  _122
REMARK   53  A    between atoms: _127  and  _129
REMARK   54  A    between atoms: _129  and  _130
REMARK   55  A    between atoms: _133  and  _135
REMARK   56  A    between atoms: _135  and  _136
REMARK   57  A    between atoms: _135  and  _138
REMARK   58  A    between atoms: _138  and  _139
REMARK   59  A    between atoms: _139  and  _140
REMARK   60  A    between atoms: _145  and  _147
REMARK   61  A    between atoms: _147  and  _148
REMARK   62  A    between atoms: _147  and  _150
REMARK   63  A    between atoms: _150  and  _151
REMARK   64  A    between atoms: _156  and  _157
REMARK   65  A    between atoms: _159  and  _161
REMARK   66  A    between atoms: _161  and  _162
REMARK   67  A    between atoms: _161  and  _164
REMARK   68  A    between atoms: _164  and  _165
REMARK   69  A    between atoms: _165  and  _166
REMARK   70  A    between atoms: _168  and  _170
REMARK   71  A    between atoms: _170  and  _171
REMARK   72  A    between atoms: _170  and  _173
REMARK   73  A    between atoms: _173  and  _174
REMARK   74  A    between atoms: _177  and  _179
REMARK   75  A    between atoms: _179  and  _180
REMARK   76  A    between atoms: _179  and  _182
REMARK   77  A    between atoms: _182  and  _183
REMARK   78  A    between atoms: _186  and  _188
REMARK   79  A    between atoms: _188  and  _189
REMARK   80  A    between atoms: _188  and  _191
REMARK   81  A    between atoms: _191  and  _192
REMARK   82  A    between atoms: _195  and  _197
REMARK   83  A    between atoms: _197  and  _198
REMARK   84  A    between atoms: _197  and  _200
REMARK   85  A    between atoms: _200  and  _201
REMARK   86  A    between atoms: _204  and  _206
REMARK   87  A    between atoms: _206  and  _207
REMARK   88  A    between atoms: _206  and  _209
REMARK   89  A    between atoms: _209  and  _210
REMARK   90  A    between atoms: _217  and  _218
REMARK   91  A    between atoms: _223  and  _225
REMARK   92  A    between atoms: _225  and  _226
REMARK   93  A    between atoms: _225  and  _228
REMARK   94  A    between atoms: _228  and  _229
REMARK   95  A    between atoms: _234  and  _236
REMARK   96  A    between atoms: _236  and  _237
REMARK   97  A    between atoms: _236  and  _239
REMARK   98  A    between atoms: _239  and  _240
REMARK   99  A    between atoms: _242  and  _244
REMARK  100  A    between atoms: _244  and  _245
REMARK  101  A    between atoms: _244  and  _247
REMARK  102  A    between atoms: _247  and  _248
REMARK  103  A    between atoms: _248  and  _249
REMARK  104  A    between atoms: _254  and  _256
REMARK  105  A    between atoms: _256  and  _257
REMARK  106  A    between atoms: _256  and  _259
REMARK  107  A    between atoms: _259  and  _260
REMARK  108  A    between atoms: _262  and  _264
REMARK  109  A    between atoms: _264  and  _265
REMARK  110  A    between atoms: _267  and  _269
REMARK  111  A    between atoms: _269  and  _270
REMARK  112  A    between atoms: _269  and  _272
REMARK  113  A    between atoms: _272  and  _273
REMARK  114  A    between atoms: _276  and  _278
REMARK  115  A    between atoms: _278  and  _279
REMARK  116  A    between atoms: _278  and  _281
REMARK  117  A    between atoms: _281  and  _282
REMARK  118  A    between atoms: _287  and  _289
REMARK  119  A    between atoms: _289  and  _290
REMARK  120  A    between atoms: _289  and  _292
REMARK  121  A    between atoms: _292  and  _293
REMARK  122  A    between atoms: _296  and  _298
REMARK  123  A    between atoms: _298  and  _299
REMARK  124  A    between atoms: _302  and  _304
REMARK  125  A    between atoms: _304  and  _305
REMARK  126  A    between atoms: _304  and  _307
REMARK  127  A    between atoms: _307  and  _308
REMARK  128  A    between atoms: _313  and  _314
REMARK  129  A    between atoms: _316  and  _318
REMARK  130  A    between atoms: _318  and  _319
REMARK  131  A    between atoms: _318  and  _321
REMARK  132  A    between atoms: _321  and  _322
REMARK  133  A    between atoms: _327  and  _328
REMARK  134  A    between atoms: _330  and  _332
REMARK  135  A    between atoms: _332  and  _333
REMARK  136  A    between atoms: _332  and  _335
REMARK  137  A    between atoms: _335  and  _336
REMARK  138  A    between atoms: _336  and  _337
REMARK  139  A    between atoms: _342  and  _344
REMARK  140  A    between atoms: _344  and  _345
REMARK  141  A    between atoms: _344  and  _347
REMARK  142  A    between atoms: _350  and  _352
REMARK  143  A    between atoms: _352  and  _353
REMARK  144  A    between atoms: _352  and  _355
REMARK  145  A    between atoms: _358  and  _360
REMARK  146  A    between atoms: _360  and  _361
REMARK  147  A    between atoms: _360  and  _363
REMARK  148  A    between atoms: _363  and  _364
REMARK  149  A    between atoms: _364  and  _365
REMARK  150  A    between atoms: _365  and  _366
REMARK  151  A    between atoms: _375  and  _377
REMARK  152  A    between atoms: _377  and  _378
REMARK  153  A    between atoms: _381  and  _383
REMARK  154  A    between atoms: _383  and  _384
REMARK  155  A    between atoms: _383  and  _386
REMARK  156  A    between atoms: _386  and  _387
REMARK  157  A    between atoms: _389  and  _391
REMARK  158  A    between atoms: _391  and  _392
REMARK  159  A    between atoms: _391  and  _394
REMARK  160  A    between atoms: _394  and  _395
REMARK  161  A    between atoms: _400  and  _402
REMARK  162  A    between atoms: _402  and  _403
REMARK  163  A    between atoms: _402  and  _405
REMARK  164  A    between atoms: _405  and  _406
REMARK  165  A    between atoms: _416  and  _418
REMARK  166  A    between atoms: _418  and  _419
REMARK  167  A    between atoms: _418  and  _421
REMARK  168  A    between atoms: _421  and  _422
REMARK  169  A    between atoms: _425  and  _427
REMARK  170  A    between atoms: _427  and  _428
REMARK  171  A    between atoms: _427  and  _430
REMARK  172  A    between atoms: _430  and  _431
REMARK  173  A    between atoms: _436  and  _437
REMARK  174  A    between atoms: _439  and  _441
REMARK  175  A    between atoms: _441  and  _442
REMARK  176  A    between atoms: _444  and  _446
REMARK  177  A    between atoms: _446  and  _447
REMARK  178  A    between atoms: _446  and  _449
REMARK  179  A    between atoms: _449  and  _450
REMARK  180  A    between atoms: _460  and  _462
REMARK  181  A    between atoms: _462  and  _463
REMARK  182  A    between atoms: _462  and  _465
REMARK  183  A    between atoms: _465  and  _466
REMARK  184  A    between atoms: _468  and  _470
REMARK  185  A    between atoms: _470  and  _471
REMARK  186  A    between atoms: _473  and  _475
REMARK  187  A    between atoms: _475  and  _476
REMARK  188  A    between atoms: _475  and  _478
REMARK  189  A    between atoms: _478  and  _479
REMARK  190  A    between atoms: _482  and  _484
REMARK  191  A    between atoms: _484  and  _485
REMARK  192  A    between atoms: _484  and  _487
REMARK  193  A    between atoms: _487  and  _488
REMARK  194  A    between atoms: _493  and  _495
REMARK  195  A    between atoms: _495  and  _496
REMARK  196  A    between atoms: _495  and  _498
REMARK  197  A    between atoms: _498  and  _499
REMARK  198  A    between atoms: _504  and  _506
REMARK  199  A    between atoms: _506  and  _507
REMARK  200  A    between atoms: _506  and  _509
REMARK  201  A    between atoms: _509  and  _510
REMARK  202  A    between atoms: _517  and  _518
REMARK  203  A    between atoms: _523  and  _525
REMARK  204  A    between atoms: _525  and  _526
REMARK  205  A    between atoms: _525  and  _528
REMARK  206  A    between atoms: _528  and  _529
REMARK  207  A    between atoms: _532  and  _534
REMARK  208  A    between atoms: _534  and  _535
REMARK  209  A    between atoms: _534  and  _537
REMARK  210  A    between atoms: _537  and  _538
REMARK  211  A    between atoms: _540  and  _542
REMARK  212  A    between atoms: _542  and  _543
REMARK  213  A    between atoms: _542  and  _545
REMARK  214  A    between atoms: _545  and  _546
REMARK  215  A    between atoms: _551  and  _552
REMARK  216  A    between atoms: _554  and  _556
REMARK  217  A    between atoms: _556  and  _557
REMARK  218  A    between atoms: _556  and  _559
REMARK  219  A    between atoms: _559  and  _560
REMARK  220  A    between atoms: _562  and  _564
REMARK  221  A    between atoms: _564  and  _565
REMARK  222  A    between atoms: _564  and  _567
REMARK  223  A    between atoms: _567  and  _568
REMARK  224  A    between atoms: _571  and  _573
REMARK  225  A    between atoms: _573  and  _574
REMARK  226  A    between atoms: _573  and  _576
REMARK  227  A    between atoms: _576  and  _577
REMARK  228  A    between atoms: _582  and  _584
REMARK  229  A    between atoms: _584  and  _585
REMARK  230  A    between atoms: _584  and  _587
REMARK  231  A    between atoms: _587  and  _588
REMARK  232  A    between atoms: _594  and  _596
REMARK  233  A    between atoms: _596  and  _597
REMARK  234  A    between atoms: _601  and  _602
REMARK  235  A    between atoms: _607  and  _609
REMARK  236  A    between atoms: _609  and  _610
REMARK  237  A    between atoms: _609  and  _612
REMARK  238  A    between atoms: _612  and  _613
REMARK  239  A    between atoms: _618  and  _619
REMARK  240  A    between atoms: _621  and  _623
REMARK  241  A    between atoms: _623  and  _624
REMARK  242  A    between atoms: _623  and  _626
REMARK  243  A    between atoms: _626  and  _627
REMARK  244  A    between atoms: _627  and  _628
REMARK  245  A    between atoms: _628  and  _629
REMARK  246  A    between atoms: _629  and  _630
REMARK  247  A    between atoms: _634  and  _636
REMARK  248  A    between atoms: _636  and  _637
REMARK  249  A    between atoms: _636  and  _639
REMARK  250  A    between atoms: _639  and  _640
REMARK  251  A    between atoms: _640  and  _641
REMARK  252  A    between atoms: _646  and  _648
REMARK  253  A    between atoms: _648  and  _649
REMARK  254  A    between atoms: _648  and  _651
REMARK  255  A    between atoms: _651  and  _652
REMARK  256  A    between atoms: _655  and  _656
REMARK  257  A    between atoms: _661  and  _663
REMARK  258  A    between atoms: _663  and  _664
REMARK  259  A    between atoms: _663  and  _666
REMARK  260  A    between atoms: _666  and  _667
REMARK  261  A    between atoms: _673  and  _675
REMARK  262  A    between atoms: _675  and  _676
REMARK  263  A    between atoms: _678  and  _680
REMARK  264  A    between atoms: _680  and  _681
REMARK  265  A    between atoms: _680  and  _683
REMARK  266  A    between atoms: _683  and  _684
REMARK  267  A    between atoms: _689  and  _690
REMARK  268  A    between atoms: _692  and  _694
REMARK  269  A    between atoms: _694  and  _695
REMARK  270  A    between atoms: _694  and  _697
REMARK  271  A    between atoms: _697  and  _698
REMARK  272  A    between atoms: _701  and  _703
REMARK  273  A    between atoms: _703  and  _704
REMARK  274  A    between atoms: _703  and  _706
REMARK  275  A    between atoms: _706  and  _707
REMARK  276  A    between atoms: _712  and  _713
REMARK                            x       y       z     vdW  Elec       q    Type
REMARK                         _______ _______ _______ _____ _____    ______ ____
ROOT
ATOM      1  O   HOH     1      18.949 -24.789 -14.904  0.00  0.00    +0.000 OA
ENDROOT
TORSDOF 0
REMARK  Name = ../refined-set-2016/3m8u/3m8u_pocket.pdb
REMARK  276 active torsions:
REMARK  status: ('A' for Active; 'I' for Inactive)
REMARK    1  A    between atoms: _1  and  _3
REMARK    2  A    between atoms: _3  and  _4
REMARK    3  A    between atoms: _3  and  _6
REMARK    4  A    between atoms: _6  and  _7
REMARK    5  A    between atoms: _12  and  _14
REMARK    6  A    between atoms: _14  and  _15
REMARK    7  A    between atoms: _14  and  _17
REMARK    8  A    between atoms: _20  and  _22
REMARK    9  A    between atoms: _22  and  _23
REMARK   10  A    between atoms: _22  and  _25
REMARK   11  A    between atoms: _25  and  _26
REMARK   12  A    between atoms: _28  and  _30
REMARK   13  A    between atoms: _30  and  _31
REMARK   14  A    between atoms: _30  and  _33
REMARK   15  A    between atoms: _33  and  _34
REMARK   16  A    between atoms: _34  and  _35
REMARK   17  A    between atoms: _35  and  _36
REMARK   18  A    between atoms: _45  and  _47
REMARK   19  A    between atoms: _47  and  _48
REMARK   20  A    between atoms: _47  and  _50
REMARK   21  A    between atoms: _50  and  _51
REMARK   22  A    between atoms: _54  and  _56
REMARK   23  A    between atoms: _56  and  _57
REMARK   24  A    between atoms: _56  and  _59
REMARK   25  A    between atoms: _62  and  _64
REMARK   26  A    between atoms: _64  and  _65
REMARK   27  A    between atoms: _64  and  _67
REMARK   28  A    between atoms: _67  and  _68
REMARK   29  A    between atoms: _68  and  _69
REMARK   30  A    between atoms: _71  and  _73
REMARK   31  A    between atoms: _73  and  _74
REMARK   32  A    between atoms: _73  and  _76
REMARK   33  A    between atoms: _76  and  _77
REMARK   34  A    between atoms: _80  and  _82
REMARK   35  A    between atoms: _82  and  _83
REMARK   36  A    between atoms: _85  and  _87
REMARK   37  A    between atoms: _87  and  _88
REMARK   38  A    between atoms: _87  and  _90
REMARK   39  A    between atoms: _90  and  _91
REMARK   40  A    between atoms: _94  and  _96
REMARK   41  A    between atoms: _96  and  _97
REMARK   42  A    between atoms: _96  and  _99
REMARK   43  A    between atoms: _99  and  _100
REMARK   44  A    between atoms: _102  and  _104
REMARK   45  A    between atoms: _104  and  _105
REMARK   46  A    between atoms: _104  and  _107
REMARK   47  A    between atoms: _107  and  _108
REMARK   48  A    between atoms: _113  and  _114
REMARK   49  A    between atoms: _116  and  _118
REMARK   50  A    between atoms: _118  and  _119
REMARK   51  A    between atoms: _118  and  _121
REMARK   52  A    between atoms: _121  and  _122
REMARK   53  A    between atoms: _127  and  _129
REMARK   54  A    between atoms: _129  and  _130
REMARK   55  A    between atoms: _133  and  _135
REMARK   56  A    between atoms: _135  and  _136
REMARK   57  A    between atoms: _135  and  _138
REMARK   58  A    between atoms: _138  and  _139
REMARK   59  A    between atoms: _139  and  _140
REMARK   60  A    between atoms: _145  and  _147
REMARK   61  A    between atoms: _147  and  _148
REMARK   62  A    between atoms: _147  and  _150
REMARK   63  A    between atoms: _150  and  _151
REMARK   64  A    between atoms: _156  and  _157
REMARK   65  A    between atoms: _159  and  _161
REMARK   66  A    between atoms: _161  and  _162
REMARK   67  A    between atoms: _161  and  _164
REMARK   68  A    between atoms: _164  and  _165
REMARK   69  A    between atoms: _165  and  _166
REMARK   70  A    between atoms: _168  and  _170
REMARK   71  A    between atoms: _170  and  _171
REMARK   72  A    between atoms: _170  and  _173
REMARK   73  A    between atoms: _173  and  _174
REMARK   74  A    between atoms: _177  and  _179
REMARK   75  A    between atoms: _179  and  _180
REMARK   76  A    between atoms: _179  and  _182
REMARK   77  A    between atoms: _182  and  _183
REMARK   78  A    between atoms: _186  and  _188
REMARK   79  A    between atoms: _188  and  _189
REMARK   80  A    between atoms: _188  and  _191
REMARK   81  A    between atoms: _191  and  _192
REMARK   82  A    between atoms: _195  and  _197
REMARK   83  A    between atoms: _197  and  _198
REMARK   84  A    between atoms: _197  and  _200
REMARK   85  A    between atoms: _200  and  _201
REMARK   86  A    between atoms: _204  and  _206
REMARK   87  A    between atoms: _206  and  _207
REMARK   88  A    between atoms: _206  and  _209
REMARK   89  A    between atoms: _209  and  _210
REMARK   90  A    between atoms: _217  and  _218
REMARK   91  A    between atoms: _223  and  _225
REMARK   92  A    between atoms: _225  and  _226
REMARK   93  A    between atoms: _225  and  _228
REMARK   94  A    between atoms: _228  and  _229
REMARK   95  A    between atoms: _234  and  _236
REMARK   96  A    between atoms: _236  and  _237
REMARK   97  A    between atoms: _236  and  _239
REMARK   98  A    between atoms: _239  and  _240
REMARK   99  A    between atoms: _242  and  _244
REMARK  100  A    between atoms: _244  and  _245
REMARK  101  A    between atoms: _244  and  _247
REMARK  102  A    between atoms: _247  and  _248
REMARK  103  A    between atoms: _248  and  _249
REMARK  104  A    between atoms: _254  and  _256
REMARK  105  A    between atoms: _256  and  _257
REMARK  106  A    between atoms: _256  and  _259
REMARK  107  A    between atoms: _259  and  _260
REMARK  108  A    between atoms: _262  and  _264
REMARK  109  A    between atoms: _264  and  _265
REMARK  110  A    between atoms: _267  and  _269
REMARK  111  A    between atoms: _269  and  _270
REMARK  112  A    between atoms: _269  and  _272
REMARK  113  A    between atoms: _272  and  _273
REMARK  114  A    between atoms: _276  and  _278
REMARK  115  A    between atoms: _278  and  _279
REMARK  116  A    between atoms: _278  and  _281
REMARK  117  A    between atoms: _281  and  _282
REMARK  118  A    between atoms: _287  and  _289
REMARK  119  A    between atoms: _289  and  _290
REMARK  120  A    between atoms: _289  and  _292
REMARK  121  A    between atoms: _292  and  _293
REMARK  122  A    between atoms: _296  and  _298
REMARK  123  A    between atoms: _298  and  _299
REMARK  124  A    between atoms: _302  and  _304
REMARK  125  A    between atoms: _304  and  _305
REMARK  126  A    between atoms: _304  and  _307
REMARK  127  A    between atoms: _307  and  _308
REMARK  128  A    between atoms: _313  and  _314
REMARK  129  A    between atoms: _316  and  _318
REMARK  130  A    between atoms: _318  and  _319
REMARK  131  A    between atoms: _318  and  _321
REMARK  132  A    between atoms: _321  and  _322
REMARK  133  A    between atoms: _327  and  _328
REMARK  134  A    between atoms: _330  and  _332
REMARK  135  A    between atoms: _332  and  _333
REMARK  136  A    between atoms: _332  and  _335
REMARK  137  A    between atoms: _335  and  _336
REMARK  138  A    between atoms: _336  and  _337
REMARK  139  A    between atoms: _342  and  _344
REMARK  140  A    between atoms: _344  and  _345
REMARK  141  A    between atoms: _344  and  _347
REMARK  142  A    between atoms: _350  and  _352
REMARK  143  A    between atoms: _352  and  _353
REMARK  144  A    between atoms: _352  and  _355
REMARK  145  A    between atoms: _358  and  _360
REMARK  146  A    between atoms: _360  and  _361
REMARK  147  A    between atoms: _360  and  _363
REMARK  148  A    between atoms: _363  and  _364
REMARK  149  A    between atoms: _364  and  _365
REMARK  150  A    between atoms: _365  and  _366
REMARK  151  A    between atoms: _375  and  _377
REMARK  152  A    between atoms: _377  and  _378
REMARK  153  A    between atoms: _381  and  _383
REMARK  154  A    between atoms: _383  and  _384
REMARK  155  A    between atoms: _383  and  _386
REMARK  156  A    between atoms: _386  and  _387
REMARK  157  A    between atoms: _389  and  _391
REMARK  158  A    between atoms: _391  and  _392
REMARK  159  A    between atoms: _391  and  _394
REMARK  160  A    between atoms: _394  and  _395
REMARK  161  A    between atoms: _400  and  _402
REMARK  162  A    between atoms: _402  and  _403
REMARK  163  A    between atoms: _402  and  _405
REMARK  164  A    between atoms: _405  and  _406
REMARK  165  A    between atoms: _416  and  _418
REMARK  166  A    between atoms: _418  and  _419
REMARK  167  A    between atoms: _418  and  _421
REMARK  168  A    between atoms: _421  and  _422
REMARK  169  A    between atoms: _425  and  _427
REMARK  170  A    between atoms: _427  and  _428
REMARK  171  A    between atoms: _427  and  _430
REMARK  172  A    between atoms: _430  and  _431
REMARK  173  A    between atoms: _436  and  _437
REMARK  174  A    between atoms: _439  and  _441
REMARK  175  A    between atoms: _441  and  _442
REMARK  176  A    between atoms: _444  and  _446
REMARK  177  A    between atoms: _446  and  _447
REMARK  178  A    between atoms: _446  and  _449
REMARK  179  A    between atoms: _449  and  _450
REMARK  180  A    between atoms: _460  and  _462
REMARK  181  A    between atoms: _462  and  _463
REMARK  182  A    between atoms: _462  and  _465
REMARK  183  A    between atoms: _465  and  _466
REMARK  184  A    between atoms: _468  and  _470
REMARK  185  A    between atoms: _470  and  _471
REMARK  186  A    between atoms: _473  and  _475
REMARK  187  A    between atoms: _475  and  _476
REMARK  188  A    between atoms: _475  and  _478
REMARK  189  A    between atoms: _478  and  _479
REMARK  190  A    between atoms: _482  and  _484
REMARK  191  A    between atoms: _484  and  _485
REMARK  192  A    between atoms: _484  and  _487
REMARK  193  A    between atoms: _487  and  _488
REMARK  194  A    between atoms: _493  and  _495
REMARK  195  A    between atoms: _495  and  _496
REMARK  196  A    between atoms: _495  and  _498
REMARK  197  A    between atoms: _498  and  _499
REMARK  198  A    between atoms: _504  and  _506
REMARK  199  A    between atoms: _506  and  _507
REMARK  200  A    between atoms: _506  and  _509
REMARK  201  A    between atoms: _509  and  _510
REMARK  202  A    between atoms: _517  and  _518
REMARK  203  A    between atoms: _523  and  _525
REMARK  204  A    between atoms: _525  and  _526
REMARK  205  A    between atoms: _525  and  _528
REMARK  206  A    between atoms: _528  and  _529
REMARK  207  A    between atoms: _532  and  _534
REMARK  208  A    between atoms: _534  and  _535
REMARK  209  A    between atoms: _534  and  _537
REMARK  210  A    between atoms: _537  and  _538
REMARK  211  A    between atoms: _540  and  _542
REMARK  212  A    between atoms: _542  and  _543
REMARK  213  A    between atoms: _542  and  _545
REMARK  214  A    between atoms: _545  and  _546
REMARK  215  A    between atoms: _551  and  _552
REMARK  216  A    between atoms: _554  and  _556
REMARK  217  A    between atoms: _556  and  _557
REMARK  218  A    between atoms: _556  and  _559
REMARK  219  A    between atoms: _559  and  _560
REMARK  220  A    between atoms: _562  and  _564
REMARK  221  A    between atoms: _564  and  _565
REMARK  222  A    between atoms: _564  and  _567
REMARK  223  A    between atoms: _567  and  _568
REMARK  224  A    between atoms: _571  and  _573
REMARK  225  A    between atoms: _573  and  _574
REMARK  226  A    between atoms: _573  and  _576
REMARK  227  A    between atoms: _576  and  _577
REMARK  228  A    between atoms: _582  and  _584
REMARK  229  A    between atoms: _584  and  _585
REMARK  230  A    between atoms: _584  and  _587
REMARK  231  A    between atoms: _587  and  _588
REMARK  232  A    between atoms: _594  and  _596
REMARK  233  A    between atoms: _596  and  _597
REMARK  234  A    between atoms: _601  and  _602
REMARK  235  A    between atoms: _607  and  _609
REMARK  236  A    between atoms: _609  and  _610
REMARK  237  A    between atoms: _609  and  _612
REMARK  238  A    between atoms: _612  and  _613
REMARK  239  A    between atoms: _618  and  _619
REMARK  240  A    between atoms: _621  and  _623
REMARK  241  A    between atoms: _623  and  _624
REMARK  242  A    between atoms: _623  and  _626
REMARK  243  A    between atoms: _626  and  _627
REMARK  244  A    between atoms: _627  and  _628
REMARK  245  A    between atoms: _628  and  _629
REMARK  246  A    between atoms: _629  and  _630
REMARK  247  A    between atoms: _634  and  _636
REMARK  248  A    between atoms: _636  and  _637
REMARK  249  A    between atoms: _636  and  _639
REMARK  250  A    between atoms: _639  and  _640
REMARK  251  A    between atoms: _640  and  _641
REMARK  252  A    between atoms: _646  and  _648
REMARK  253  A    between atoms: _648  and  _649
REMARK  254  A    between atoms: _648  and  _651
REMARK  255  A    between atoms: _651  and  _652
REMARK  256  A    between atoms: _655  and  _656
REMARK  257  A    between atoms: _661  and  _663
REMARK  258  A    between atoms: _663  and  _664
REMARK  259  A    between atoms: _663  and  _666
REMARK  260  A    between atoms: _666  and  _667
REMARK  261  A    between atoms: _673  and  _675
REMARK  262  A    between atoms: _675  and  _676
REMARK  263  A    between atoms: _678  and  _680
REMARK  264  A    between atoms: _680  and  _681
REMARK  265  A    between atoms: _680  and  _683
REMARK  266  A    between atoms: _683  and  _684
REMARK  267  A    between atoms: _689  and  _690
REMARK  268  A    between atoms: _692  and  _694
REMARK  269  A    between atoms: _694  and  _695
REMARK  270  A    between atoms: _694  and  _697
REMARK  271  A    between atoms: _697  and  _698
REMARK  272  A    between atoms: _701  and  _703
REMARK  273  A    between atoms: _703  and  _704
REMARK  274  A    between atoms: _703  and  _706
REMARK  275  A    between atoms: _706  and  _707
REMARK  276  A    between atoms: _712  and  _713
REMARK                            x       y       z     vdW  Elec       q    Type
REMARK                         _______ _______ _______ _____ _____    ______ ____
ROOT
ATOM      1  O   HOH     1      24.090 -22.324 -18.127  0.00  0.00    +0.000 OA
ENDROOT
TORSDOF 0
REMARK  Name = ../refined-set-2016/3m8u/3m8u_pocket.pdb
REMARK  276 active torsions:
REMARK  status: ('A' for Active; 'I' for Inactive)
REMARK    1  A    between atoms: _1  and  _3
REMARK    2  A    between atoms: _3  and  _4
REMARK    3  A    between atoms: _3  and  _6
REMARK    4  A    between atoms: _6  and  _7
REMARK    5  A    between atoms: _12  and  _14
REMARK    6  A    between atoms: _14  and  _15
REMARK    7  A    between atoms: _14  and  _17
REMARK    8  A    between atoms: _20  and  _22
REMARK    9  A    between atoms: _22  and  _23
REMARK   10  A    between atoms: _22  and  _25
REMARK   11  A    between atoms: _25  and  _26
REMARK   12  A    between atoms: _28  and  _30
REMARK   13  A    between atoms: _30  and  _31
REMARK   14  A    between atoms: _30  and  _33
REMARK   15  A    between atoms: _33  and  _34
REMARK   16  A    between atoms: _34  and  _35
REMARK   17  A    between atoms: _35  and  _36
REMARK   18  A    between atoms: _45  and  _47
REMARK   19  A    between atoms: _47  and  _48
REMARK   20  A    between atoms: _47  and  _50
REMARK   21  A    between atoms: _50  and  _51
REMARK   22  A    between atoms: _54  and  _56
REMARK   23  A    between atoms: _56  and  _57
REMARK   24  A    between atoms: _56  and  _59
REMARK   25  A    between atoms: _62  and  _64
REMARK   26  A    between atoms: _64  and  _65
REMARK   27  A    between atoms: _64  and  _67
REMARK   28  A    between atoms: _67  and  _68
REMARK   29  A    between atoms: _68  and  _69
REMARK   30  A    between atoms: _71  and  _73
REMARK   31  A    between atoms: _73  and  _74
REMARK   32  A    between atoms: _73  and  _76
REMARK   33  A    between atoms: _76  and  _77
REMARK   34  A    between atoms: _80  and  _82
REMARK   35  A    between atoms: _82  and  _83
REMARK   36  A    between atoms: _85  and  _87
REMARK   37  A    between atoms: _87  and  _88
REMARK   38  A    between atoms: _87  and  _90
REMARK   39  A    between atoms: _90  and  _91
REMARK   40  A    between atoms: _94  and  _96
REMARK   41  A    between atoms: _96  and  _97
REMARK   42  A    between atoms: _96  and  _99
REMARK   43  A    between atoms: _99  and  _100
REMARK   44  A    between atoms: _102  and  _104
REMARK   45  A    between atoms: _104  and  _105
REMARK   46  A    between atoms: _104  and  _107
REMARK   47  A    between atoms: _107  and  _108
REMARK   48  A    between atoms: _113  and  _114
REMARK   49  A    between atoms: _116  and  _118
REMARK   50  A    between atoms: _118  and  _119
REMARK   51  A    between atoms: _118  and  _121
REMARK   52  A    between atoms: _121  and  _122
REMARK   53  A    between atoms: _127  and  _129
REMARK   54  A    between atoms: _129  and  _130
REMARK   55  A    between atoms: _133  and  _135
REMARK   56  A    between atoms: _135  and  _136
REMARK   57  A    between atoms: _135  and  _138
REMARK   58  A    between atoms: _138  and  _139
REMARK   59  A    between atoms: _139  and  _140
REMARK   60  A    between atoms: _145  and  _147
REMARK   61  A    between atoms: _147  and  _148
REMARK   62  A    between atoms: _147  and  _150
REMARK   63  A    between atoms: _150  and  _151
REMARK   64  A    between atoms: _156  and  _157
REMARK   65  A    between atoms: _159  and  _161
REMARK   66  A    between atoms: _161  and  _162
REMARK   67  A    between atoms: _161  and  _164
REMARK   68  A    between atoms: _164  and  _165
REMARK   69  A    between atoms: _165  and  _166
REMARK   70  A    between atoms: _168  and  _170
REMARK   71  A    between atoms: _170  and  _171
REMARK   72  A    between atoms: _170  and  _173
REMARK   73  A    between atoms: _173  and  _174
REMARK   74  A    between atoms: _177  and  _179
REMARK   75  A    between atoms: _179  and  _180
REMARK   76  A    between atoms: _179  and  _182
REMARK   77  A    between atoms: _182  and  _183
REMARK   78  A    between atoms: _186  and  _188
REMARK   79  A    between atoms: _188  and  _189
REMARK   80  A    between atoms: _188  and  _191
REMARK   81  A    between atoms: _191  and  _192
REMARK   82  A    between atoms: _195  and  _197
REMARK   83  A    between atoms: _197  and  _198
REMARK   84  A    between atoms: _197  and  _200
REMARK   85  A    between atoms: _200  and  _201
REMARK   86  A    between atoms: _204  and  _206
REMARK   87  A    between atoms: _206  and  _207
REMARK   88  A    between atoms: _206  and  _209
REMARK   89  A    between atoms: _209  and  _210
REMARK   90  A    between atoms: _217  and  _218
REMARK   91  A    between atoms: _223  and  _225
REMARK   92  A    between atoms: _225  and  _226
REMARK   93  A    between atoms: _225  and  _228
REMARK   94  A    between atoms: _228  and  _229
REMARK   95  A    between atoms: _234  and  _236
REMARK   96  A    between atoms: _236  and  _237
REMARK   97  A    between atoms: _236  and  _239
REMARK   98  A    between atoms: _239  and  _240
REMARK   99  A    between atoms: _242  and  _244
REMARK  100  A    between atoms: _244  and  _245
REMARK  101  A    between atoms: _244  and  _247
REMARK  102  A    between atoms: _247  and  _248
REMARK  103  A    between atoms: _248  and  _249
REMARK  104  A    between atoms: _254  and  _256
REMARK  105  A    between atoms: _256  and  _257
REMARK  106  A    between atoms: _256  and  _259
REMARK  107  A    between atoms: _259  and  _260
REMARK  108  A    between atoms: _262  and  _264
REMARK  109  A    between atoms: _264  and  _265
REMARK  110  A    between atoms: _267  and  _269
REMARK  111  A    between atoms: _269  and  _270
REMARK  112  A    between atoms: _269  and  _272
REMARK  113  A    between atoms: _272  and  _273
REMARK  114  A    between atoms: _276  and  _278
REMARK  115  A    between atoms: _278  and  _279
REMARK  116  A    between atoms: _278  and  _281
REMARK  117  A    between atoms: _281  and  _282
REMARK  118  A    between atoms: _287  and  _289
REMARK  119  A    between atoms: _289  and  _290
REMARK  120  A    between atoms: _289  and  _292
REMARK  121  A    between atoms: _292  and  _293
REMARK  122  A    between atoms: _296  and  _298
REMARK  123  A    between atoms: _298  and  _299
REMARK  124  A    between atoms: _302  and  _304
REMARK  125  A    between atoms: _304  and  _305
REMARK  126  A    between atoms: _304  and  _307
REMARK  127  A    between atoms: _307  and  _308
REMARK  128  A    between atoms: _313  and  _314
REMARK  129  A    between atoms: _316  and  _318
REMARK  130  A    between atoms: _318  and  _319
REMARK  131  A    between atoms: _318  and  _321
REMARK  132  A    between atoms: _321  and  _322
REMARK  133  A    between atoms: _327  and  _328
REMARK  134  A    between atoms: _330  and  _332
REMARK  135  A    between atoms: _332  and  _333
REMARK  136  A    between atoms: _332  and  _335
REMARK  137  A    between atoms: _335  and  _336
REMARK  138  A    between atoms: _336  and  _337
REMARK  139  A    between atoms: _342  and  _344
REMARK  140  A    between atoms: _344  and  _345
REMARK  141  A    between atoms: _344  and  _347
REMARK  142  A    between atoms: _350  and  _352
REMARK  143  A    between atoms: _352  and  _353
REMARK  144  A    between atoms: _352  and  _355
REMARK  145  A    between atoms: _358  and  _360
REMARK  146  A    between atoms: _360  and  _361
REMARK  147  A    between atoms: _360  and  _363
REMARK  148  A    between atoms: _363  and  _364
REMARK  149  A    between atoms: _364  and  _365
REMARK  150  A    between atoms: _365  and  _366
REMARK  151  A    between atoms: _375  and  _377
REMARK  152  A    between atoms: _377  and  _378
REMARK  153  A    between atoms: _381  and  _383
REMARK  154  A    between atoms: _383  and  _384
REMARK  155  A    between atoms: _383  and  _386
REMARK  156  A    between atoms: _386  and  _387
REMARK  157  A    between atoms: _389  and  _391
REMARK  158  A    between atoms: _391  and  _392
REMARK  159  A    between atoms: _391  and  _394
REMARK  160  A    between atoms: _394  and  _395
REMARK  161  A    between atoms: _400  and  _402
REMARK  162  A    between atoms: _402  and  _403
REMARK  163  A    between atoms: _402  and  _405
REMARK  164  A    between atoms: _405  and  _406
REMARK  165  A    between atoms: _416  and  _418
REMARK  166  A    between atoms: _418  and  _419
REMARK  167  A    between atoms: _418  and  _421
REMARK  168  A    between atoms: _421  and  _422
REMARK  169  A    between atoms: _425  and  _427
REMARK  170  A    between atoms: _427  and  _428
REMARK  171  A    between atoms: _427  and  _430
REMARK  172  A    between atoms: _430  and  _431
REMARK  173  A    between atoms: _436  and  _437
REMARK  174  A    between atoms: _439  and  _441
REMARK  175  A    between atoms: _441  and  _442
REMARK  176  A    between atoms: _444  and  _446
REMARK  177  A    between atoms: _446  and  _447
REMARK  178  A    between atoms: _446  and  _449
REMARK  179  A    between atoms: _449  and  _450
REMARK  180  A    between atoms: _460  and  _462
REMARK  181  A    between atoms: _462  and  _463
REMARK  182  A    between atoms: _462  and  _465
REMARK  183  A    between atoms: _465  and  _466
REMARK  184  A    between atoms: _468  and  _470
REMARK  185  A    between atoms: _470  and  _471
REMARK  186  A    between atoms: _473  and  _475
REMARK  187  A    between atoms: _475  and  _476
REMARK  188  A    between atoms: _475  and  _478
REMARK  189  A    between atoms: _478  and  _479
REMARK  190  A    between atoms: _482  and  _484
REMARK  191  A    between atoms: _484  and  _485
REMARK  192  A    between atoms: _484  and  _487
REMARK  193  A    between atoms: _487  and  _488
REMARK  194  A    between atoms: _493  and  _495
REMARK  195  A    between atoms: _495  and  _496
REMARK  196  A    between atoms: _495  and  _498
REMARK  197  A    between atoms: _498  and  _499
REMARK  198  A    between atoms: _504  and  _506
REMARK  199  A    between atoms: _506  and  _507
REMARK  200  A    between atoms: _506  and  _509
REMARK  201  A    between atoms: _509  and  _510
REMARK  202  A    between atoms: _517  and  _518
REMARK  203  A    between atoms: _523  and  _525
REMARK  204  A    between atoms: _525  and  _526
REMARK  205  A    between atoms: _525  and  _528
REMARK  206  A    between atoms: _528  and  _529
REMARK  207  A    between atoms: _532  and  _534
REMARK  208  A    between atoms: _534  and  _535
REMARK  209  A    between atoms: _534  and  _537
REMARK  210  A    between atoms: _537  and  _538
REMARK  211  A    between atoms: _540  and  _542
REMARK  212  A    between atoms: _542  and  _543
REMARK  213  A    between atoms: _542  and  _545
REMARK  214  A    between atoms: _545  and  _546
REMARK  215  A    between atoms: _551  and  _552
REMARK  216  A    between atoms: _554  and  _556
REMARK  217  A    between atoms: _556  and  _557
REMARK  218  A    between atoms: _556  and  _559
REMARK  219  A    between atoms: _559  and  _560
REMARK  220  A    between atoms: _562  and  _564
REMARK  221  A    between atoms: _564  and  _565
REMARK  222  A    between atoms: _564  and  _567
REMARK  223  A    between atoms: _567  and  _568
REMARK  224  A    between atoms: _571  and  _573
REMARK  225  A    between atoms: _573  and  _574
REMARK  226  A    between atoms: _573  and  _576
REMARK  227  A    between atoms: _576  and  _577
REMARK  228  A    between atoms: _582  and  _584
REMARK  229  A    between atoms: _584  and  _585
REMARK  230  A    between atoms: _584  and  _587
REMARK  231  A    between atoms: _587  and  _588
REMARK  232  A    between atoms: _594  and  _596
REMARK  233  A    between atoms: _596  and  _597
REMARK  234  A    between atoms: _601  and  _602
REMARK  235  A    between atoms: _607  and  _609
REMARK  236  A    between atoms: _609  and  _610
REMARK  237  A    between atoms: _609  and  _612
REMARK  238  A    between atoms: _612  and  _613
REMARK  239  A    between atoms: _618  and  _619
REMARK  240  A    between atoms: _621  and  _623
REMARK  241  A    between atoms: _623  and  _624
REMARK  242  A    between atoms: _623  and  _626
REMARK  243  A    between atoms: _626  and  _627
REMARK  244  A    between atoms: _627  and  _628
REMARK  245  A    between atoms: _628  and  _629
REMARK  246  A    between atoms: _629  and  _630
REMARK  247  A    between atoms: _634  and  _636
REMARK  248  A    between atoms: _636  and  _637
REMARK  249  A    between atoms: _636  and  _639
REMARK  250  A    between atoms: _639  and  _640
REMARK  251  A    between atoms: _640  and  _641
REMARK  252  A    between atoms: _646  and  _648
REMARK  253  A    between atoms: _648  and  _649
REMARK  254  A    between atoms: _648  and  _651
REMARK  255  A    between atoms: _651  and  _652
REMARK  256  A    between atoms: _655  and  _656
REMARK  257  A    between atoms: _661  and  _663
REMARK  258  A    between atoms: _663  and  _664
REMARK  259  A    between atoms: _663  and  _666
REMARK  260  A    between atoms: _666  and  _667
REMARK  261  A    between atoms: _673  and  _675
REMARK  262  A    between atoms: _675  and  _676
REMARK  263  A    between atoms: _678  and  _680
REMARK  264  A    between atoms: _680  and  _681
REMARK  265  A    between atoms: _680  and  _683
REMARK  266  A    between atoms: _683  and  _684
REMARK  267  A    between atoms: _689  and  _690
REMARK  268  A    between atoms: _692  and  _694
REMARK  269  A    between atoms: _694  and  _695
REMARK  270  A    between atoms: _694  and  _697
REMARK  271  A    between atoms: _697  and  _698
REMARK  272  A    between atoms: _701  and  _703
REMARK  273  A    between atoms: _703  and  _704
REMARK  274  A    between atoms: _703  and  _706
REMARK  275  A    between atoms: _706  and  _707
REMARK  276  A    between atoms: _712  and  _713
REMARK                            x       y       z     vdW  Elec       q    Type
REMARK                         _______ _______ _______ _____ _____    ______ ____
ROOT
ATOM      1  O   HOH     1      19.487 -25.795 -12.105  0.00  0.00    +0.000 OA
ENDROOT
TORSDOF 0
REMARK  Name = ../refined-set-2016/3m8u/3m8u_pocket.pdb
REMARK  276 active torsions:
REMARK  status: ('A' for Active; 'I' for Inactive)
REMARK    1  A    between atoms: _1  and  _3
REMARK    2  A    between atoms: _3  and  _4
REMARK    3  A    between atoms: _3  and  _6
REMARK    4  A    between atoms: _6  and  _7
REMARK    5  A    between atoms: _12  and  _14
REMARK    6  A    between atoms: _14  and  _15
REMARK    7  A    between atoms: _14  and  _17
REMARK    8  A    between atoms: _20  and  _22
REMARK    9  A    between atoms: _22  and  _23
REMARK   10  A    between atoms: _22  and  _25
REMARK   11  A    between atoms: _25  and  _26
REMARK   12  A    between atoms: _28  and  _30
REMARK   13  A    between atoms: _30  and  _31
REMARK   14  A    between atoms: _30  and  _33
REMARK   15  A    between atoms: _33  and  _34
REMARK   16  A    between atoms: _34  and  _35
REMARK   17  A    between atoms: _35  and  _36
REMARK   18  A    between atoms: _45  and  _47
REMARK   19  A    between atoms: _47  and  _48
REMARK   20  A    between atoms: _47  and  _50
REMARK   21  A    between atoms: _50  and  _51
REMARK   22  A    between atoms: _54  and  _56
REMARK   23  A    between atoms: _56  and  _57
REMARK   24  A    between atoms: _56  and  _59
REMARK   25  A    between atoms: _62  and  _64
REMARK   26  A    between atoms: _64  and  _65
REMARK   27  A    between atoms: _64  and  _67
REMARK   28  A    between atoms: _67  and  _68
REMARK   29  A    between atoms: _68  and  _69
REMARK   30  A    between atoms: _71  and  _73
REMARK   31  A    between atoms: _73  and  _74
REMARK   32  A    between atoms: _73  and  _76
REMARK   33  A    between atoms: _76  and  _77
REMARK   34  A    between atoms: _80  and  _82
REMARK   35  A    between atoms: _82  and  _83
REMARK   36  A    between atoms: _85  and  _87
REMARK   37  A    between atoms: _87  and  _88
REMARK   38  A    between atoms: _87  and  _90
REMARK   39  A    between atoms: _90  and  _91
REMARK   40  A    between atoms: _94  and  _96
REMARK   41  A    between atoms: _96  and  _97
REMARK   42  A    between atoms: _96  and  _99
REMARK   43  A    between atoms: _99  and  _100
REMARK   44  A    between atoms: _102  and  _104
REMARK   45  A    between atoms: _104  and  _105
REMARK   46  A    between atoms: _104  and  _107
REMARK   47  A    between atoms: _107  and  _108
REMARK   48  A    between atoms: _113  and  _114
REMARK   49  A    between atoms: _116  and  _118
REMARK   50  A    between atoms: _118  and  _119
REMARK   51  A    between atoms: _118  and  _121
REMARK   52  A    between atoms: _121  and  _122
REMARK   53  A    between atoms: _127  and  _129
REMARK   54  A    between atoms: _129  and  _130
REMARK   55  A    between atoms: _133  and  _135
REMARK   56  A    between atoms: _135  and  _136
REMARK   57  A    between atoms: _135  and  _138
REMARK   58  A    between atoms: _138  and  _139
REMARK   59  A    between atoms: _139  and  _140
REMARK   60  A    between atoms: _145  and  _147
REMARK   61  A    between atoms: _147  and  _148
REMARK   62  A    between atoms: _147  and  _150
REMARK   63  A    between atoms: _150  and  _151
REMARK   64  A    between atoms: _156  and  _157
REMARK   65  A    between atoms: _159  and  _161
REMARK   66  A    between atoms: _161  and  _162
REMARK   67  A    between atoms: _161  and  _164
REMARK   68  A    between atoms: _164  and  _165
REMARK   69  A    between atoms: _165  and  _166
REMARK   70  A    between atoms: _168  and  _170
REMARK   71  A    between atoms: _170  and  _171
REMARK   72  A    between atoms: _170  and  _173
REMARK   73  A    between atoms: _173  and  _174
REMARK   74  A    between atoms: _177  and  _179
REMARK   75  A    between atoms: _179  and  _180
REMARK   76  A    between atoms: _179  and  _182
REMARK   77  A    between atoms: _182  and  _183
REMARK   78  A    between atoms: _186  and  _188
REMARK   79  A    between atoms: _188  and  _189
REMARK   80  A    between atoms: _188  and  _191
REMARK   81  A    between atoms: _191  and  _192
REMARK   82  A    between atoms: _195  and  _197
REMARK   83  A    between atoms: _197  and  _198
REMARK   84  A    between atoms: _197  and  _200
REMARK   85  A    between atoms: _200  and  _201
REMARK   86  A    between atoms: _204  and  _206
REMARK   87  A    between atoms: _206  and  _207
REMARK   88  A    between atoms: _206  and  _209
REMARK   89  A    between atoms: _209  and  _210
REMARK   90  A    between atoms: _217  and  _218
REMARK   91  A    between atoms: _223  and  _225
REMARK   92  A    between atoms: _225  and  _226
REMARK   93  A    between atoms: _225  and  _228
REMARK   94  A    between atoms: _228  and  _229
REMARK   95  A    between atoms: _234  and  _236
REMARK   96  A    between atoms: _236  and  _237
REMARK   97  A    between atoms: _236  and  _239
REMARK   98  A    between atoms: _239  and  _240
REMARK   99  A    between atoms: _242  and  _244
REMARK  100  A    between atoms: _244  and  _245
REMARK  101  A    between atoms: _244  and  _247
REMARK  102  A    between atoms: _247  and  _248
REMARK  103  A    between atoms: _248  and  _249
REMARK  104  A    between atoms: _254  and  _256
REMARK  105  A    between atoms: _256  and  _257
REMARK  106  A    between atoms: _256  and  _259
REMARK  107  A    between atoms: _259  and  _260
REMARK  108  A    between atoms: _262  and  _264
REMARK  109  A    between atoms: _264  and  _265
REMARK  110  A    between atoms: _267  and  _269
REMARK  111  A    between atoms: _269  and  _270
REMARK  112  A    between atoms: _269  and  _272
REMARK  113  A    between atoms: _272  and  _273
REMARK  114  A    between atoms: _276  and  _278
REMARK  115  A    between atoms: _278  and  _279
REMARK  116  A    between atoms: _278  and  _281
REMARK  117  A    between atoms: _281  and  _282
REMARK  118  A    between atoms: _287  and  _289
REMARK  119  A    between atoms: _289  and  _290
REMARK  120  A    between atoms: _289  and  _292
REMARK  121  A    between atoms: _292  and  _293
REMARK  122  A    between atoms: _296  and  _298
REMARK  123  A    between atoms: _298  and  _299
REMARK  124  A    between atoms: _302  and  _304
REMARK  125  A    between atoms: _304  and  _305
REMARK  126  A    between atoms: _304  and  _307
REMARK  127  A    between atoms: _307  and  _308
REMARK  128  A    between atoms: _313  and  _314
REMARK  129  A    between atoms: _316  and  _318
REMARK  130  A    between atoms: _318  and  _319
REMARK  131  A    between atoms: _318  and  _321
REMARK  132  A    between atoms: _321  and  _322
REMARK  133  A    between atoms: _327  and  _328
REMARK  134  A    between atoms: _330  and  _332
REMARK  135  A    between atoms: _332  and  _333
REMARK  136  A    between atoms: _332  and  _335
REMARK  137  A    between atoms: _335  and  _336
REMARK  138  A    between atoms: _336  and  _337
REMARK  139  A    between atoms: _342  and  _344
REMARK  140  A    between atoms: _344  and  _345
REMARK  141  A    between atoms: _344  and  _347
REMARK  142  A    between atoms: _350  and  _352
REMARK  143  A    between atoms: _352  and  _353
REMARK  144  A    between atoms: _352  and  _355
REMARK  145  A    between atoms: _358  and  _360
REMARK  146  A    between atoms: _360  and  _361
REMARK  147  A    between atoms: _360  and  _363
REMARK  148  A    between atoms: _363  and  _364
REMARK  149  A    between atoms: _364  and  _365
REMARK  150  A    between atoms: _365  and  _366
REMARK  151  A    between atoms: _375  and  _377
REMARK  152  A    between atoms: _377  and  _378
REMARK  153  A    between atoms: _381  and  _383
REMARK  154  A    between atoms: _383  and  _384
REMARK  155  A    between atoms: _383  and  _386
REMARK  156  A    between atoms: _386  and  _387
REMARK  157  A    between atoms: _389  and  _391
REMARK  158  A    between atoms: _391  and  _392
REMARK  159  A    between atoms: _391  and  _394
REMARK  160  A    between atoms: _394  and  _395
REMARK  161  A    between atoms: _400  and  _402
REMARK  162  A    between atoms: _402  and  _403
REMARK  163  A    between atoms: _402  and  _405
REMARK  164  A    between atoms: _405  and  _406
REMARK  165  A    between atoms: _416  and  _418
REMARK  166  A    between atoms: _418  and  _419
REMARK  167  A    between atoms: _418  and  _421
REMARK  168  A    between atoms: _421  and  _422
REMARK  169  A    between atoms: _425  and  _427
REMARK  170  A    between atoms: _427  and  _428
REMARK  171  A    between atoms: _427  and  _430
REMARK  172  A    between atoms: _430  and  _431
REMARK  173  A    between atoms: _436  and  _437
REMARK  174  A    between atoms: _439  and  _441
REMARK  175  A    between atoms: _441  and  _442
REMARK  176  A    between atoms: _444  and  _446
REMARK  177  A    between atoms: _446  and  _447
REMARK  178  A    between atoms: _446  and  _449
REMARK  179  A    between atoms: _449  and  _450
REMARK  180  A    between atoms: _460  and  _462
REMARK  181  A    between atoms: _462  and  _463
REMARK  182  A    between atoms: _462  and  _465
REMARK  183  A    between atoms: _465  and  _466
REMARK  184  A    between atoms: _468  and  _470
REMARK  185  A    between atoms: _470  and  _471
REMARK  186  A    between atoms: _473  and  _475
REMARK  187  A    between atoms: _475  and  _476
REMARK  188  A    between atoms: _475  and  _478
REMARK  189  A    between atoms: _478  and  _479
REMARK  190  A    between atoms: _482  and  _484
REMARK  191  A    between atoms: _484  and  _485
REMARK  192  A    between atoms: _484  and  _487
REMARK  193  A    between atoms: _487  and  _488
REMARK  194  A    between atoms: _493  and  _495
REMARK  195  A    between atoms: _495  and  _496
REMARK  196  A    between atoms: _495  and  _498
REMARK  197  A    between atoms: _498  and  _499
REMARK  198  A    between atoms: _504  and  _506
REMARK  199  A    between atoms: _506  and  _507
REMARK  200  A    between atoms: _506  and  _509
REMARK  201  A    between atoms: _509  and  _510
REMARK  202  A    between atoms: _517  and  _518
REMARK  203  A    between atoms: _523  and  _525
REMARK  204  A    between atoms: _525  and  _526
REMARK  205  A    between atoms: _525  and  _528
REMARK  206  A    between atoms: _528  and  _529
REMARK  207  A    between atoms: _532  and  _534
REMARK  208  A    between atoms: _534  and  _535
REMARK  209  A    between atoms: _534  and  _537
REMARK  210  A    between atoms: _537  and  _538
REMARK  211  A    between atoms: _540  and  _542
REMARK  212  A    between atoms: _542  and  _543
REMARK  213  A    between atoms: _542  and  _545
REMARK  214  A    between atoms: _545  and  _546
REMARK  215  A    between atoms: _551  and  _552
REMARK  216  A    between atoms: _554  and  _556
REMARK  217  A    between atoms: _556  and  _557
REMARK  218  A    between atoms: _556  and  _559
REMARK  219  A    between atoms: _559  and  _560
REMARK  220  A    between atoms: _562  and  _564
REMARK  221  A    between atoms: _564  and  _565
REMARK  222  A    between atoms: _564  and  _567
REMARK  223  A    between atoms: _567  and  _568
REMARK  224  A    between atoms: _571  and  _573
REMARK  225  A    between atoms: _573  and  _574
REMARK  226  A    between atoms: _573  and  _576
REMARK  227  A    between atoms: _576  and  _577
REMARK  228  A    between atoms: _582  and  _584
REMARK  229  A    between atoms: _584  and  _585
REMARK  230  A    between atoms: _584  and  _587
REMARK  231  A    between atoms: _587  and  _588
REMARK  232  A    between atoms: _594  and  _596
REMARK  233  A    between atoms: _596  and  _597
REMARK  234  A    between atoms: _601  and  _602
REMARK  235  A    between atoms: _607  and  _609
REMARK  236  A    between atoms: _609  and  _610
REMARK  237  A    between atoms: _609  and  _612
REMARK  238  A    between atoms: _612  and  _613
REMARK  239  A    between atoms: _618  and  _619
REMARK  240  A    between atoms: _621  and  _623
REMARK  241  A    between atoms: _623  and  _624
REMARK  242  A    between atoms: _623  and  _626
REMARK  243  A    between atoms: _626  and  _627
REMARK  244  A    between atoms: _627  and  _628
REMARK  245  A    between atoms: _628  and  _629
REMARK  246  A    between atoms: _629  and  _630
REMARK  247  A    between atoms: _634  and  _636
REMARK  248  A    between atoms: _636  and  _637
REMARK  249  A    between atoms: _636  and  _639
REMARK  250  A    between atoms: _639  and  _640
REMARK  251  A    between atoms: _640  and  _641
REMARK  252  A    between atoms: _646  and  _648
REMARK  253  A    between atoms: _648  and  _649
REMARK  254  A    between atoms: _648  and  _651
REMARK  255  A    between atoms: _651  and  _652
REMARK  256  A    between atoms: _655  and  _656
REMARK  257  A    between atoms: _661  and  _663
REMARK  258  A    between atoms: _663  and  _664
REMARK  259  A    between atoms: _663  and  _666
REMARK  260  A    between atoms: _666  and  _667
REMARK  261  A    between atoms: _673  and  _675
REMARK  262  A    between atoms: _675  and  _676
REMARK  263  A    between atoms: _678  and  _680
REMARK  264  A    between atoms: _680  and  _681
REMARK  265  A    between atoms: _680  and  _683
REMARK  266  A    between atoms: _683  and  _684
REMARK  267  A    between atoms: _689  and  _690
REMARK  268  A    between atoms: _692  and  _694
REMARK  269  A    between atoms: _694  and  _695
REMARK  270  A    between atoms: _694  and  _697
REMARK  271  A    between atoms: _697  and  _698
REMARK  272  A    between atoms: _701  and  _703
REMARK  273  A    between atoms: _703  and  _704
REMARK  274  A    between atoms: _703  and  _706
REMARK  275  A    between atoms: _706  and  _707
REMARK  276  A    between atoms: _712  and  _713
REMARK                            x       y       z     vdW  Elec       q    Type
REMARK                         _______ _______ _______ _____ _____    ______ ____
ROOT
ATOM      1  O   HOH     1      21.025 -23.242 -15.047  0.00  0.00    +0.000 OA
ENDROOT
TORSDOF 0
REMARK  Name = ../refined-set-2016/3m8u/3m8u_pocket.pdb
REMARK  276 active torsions:
REMARK  status: ('A' for Active; 'I' for Inactive)
REMARK    1  A    between atoms: _1  and  _3
REMARK    2  A    between atoms: _3  and  _4
REMARK    3  A    between atoms: _3  and  _6
REMARK    4  A    between atoms: _6  and  _7
REMARK    5  A    between atoms: _12  and  _14
REMARK    6  A    between atoms: _14  and  _15
REMARK    7  A    between atoms: _14  and  _17
REMARK    8  A    between atoms: _20  and  _22
REMARK    9  A    between atoms: _22  and  _23
REMARK   10  A    between atoms: _22  and  _25
REMARK   11  A    between atoms: _25  and  _26
REMARK   12  A    between atoms: _28  and  _30
REMARK   13  A    between atoms: _30  and  _31
REMARK   14  A    between atoms: _30  and  _33
REMARK   15  A    between atoms: _33  and  _34
REMARK   16  A    between atoms: _34  and  _35
REMARK   17  A    between atoms: _35  and  _36
REMARK   18  A    between atoms: _45  and  _47
REMARK   19  A    between atoms: _47  and  _48
REMARK   20  A    between atoms: _47  and  _50
REMARK   21  A    between atoms: _50  and  _51
REMARK   22  A    between atoms: _54  and  _56
REMARK   23  A    between atoms: _56  and  _57
REMARK   24  A    between atoms: _56  and  _59
REMARK   25  A    between atoms: _62  and  _64
REMARK   26  A    between atoms: _64  and  _65
REMARK   27  A    between atoms: _64  and  _67
REMARK   28  A    between atoms: _67  and  _68
REMARK   29  A    between atoms: _68  and  _69
REMARK   30  A    between atoms: _71  and  _73
REMARK   31  A    between atoms: _73  and  _74
REMARK   32  A    between atoms: _73  and  _76
REMARK   33  A    between atoms: _76  and  _77
REMARK   34  A    between atoms: _80  and  _82
REMARK   35  A    between atoms: _82  and  _83
REMARK   36  A    between atoms: _85  and  _87
REMARK   37  A    between atoms: _87  and  _88
REMARK   38  A    between atoms: _87  and  _90
REMARK   39  A    between atoms: _90  and  _91
REMARK   40  A    between atoms: _94  and  _96
REMARK   41  A    between atoms: _96  and  _97
REMARK   42  A    between atoms: _96  and  _99
REMARK   43  A    between atoms: _99  and  _100
REMARK   44  A    between atoms: _102  and  _104
REMARK   45  A    between atoms: _104  and  _105
REMARK   46  A    between atoms: _104  and  _107
REMARK   47  A    between atoms: _107  and  _108
REMARK   48  A    between atoms: _113  and  _114
REMARK   49  A    between atoms: _116  and  _118
REMARK   50  A    between atoms: _118  and  _119
REMARK   51  A    between atoms: _118  and  _121
REMARK   52  A    between atoms: _121  and  _122
REMARK   53  A    between atoms: _127  and  _129
REMARK   54  A    between atoms: _129  and  _130
REMARK   55  A    between atoms: _133  and  _135
REMARK   56  A    between atoms: _135  and  _136
REMARK   57  A    between atoms: _135  and  _138
REMARK   58  A    between atoms: _138  and  _139
REMARK   59  A    between atoms: _139  and  _140
REMARK   60  A    between atoms: _145  and  _147
REMARK   61  A    between atoms: _147  and  _148
REMARK   62  A    between atoms: _147  and  _150
REMARK   63  A    between atoms: _150  and  _151
REMARK   64  A    between atoms: _156  and  _157
REMARK   65  A    between atoms: _159  and  _161
REMARK   66  A    between atoms: _161  and  _162
REMARK   67  A    between atoms: _161  and  _164
REMARK   68  A    between atoms: _164  and  _165
REMARK   69  A    between atoms: _165  and  _166
REMARK   70  A    between atoms: _168  and  _170
REMARK   71  A    between atoms: _170  and  _171
REMARK   72  A    between atoms: _170  and  _173
REMARK   73  A    between atoms: _173  and  _174
REMARK   74  A    between atoms: _177  and  _179
REMARK   75  A    between atoms: _179  and  _180
REMARK   76  A    between atoms: _179  and  _182
REMARK   77  A    between atoms: _182  and  _183
REMARK   78  A    between atoms: _186  and  _188
REMARK   79  A    between atoms: _188  and  _189
REMARK   80  A    between atoms: _188  and  _191
REMARK   81  A    between atoms: _191  and  _192
REMARK   82  A    between atoms: _195  and  _197
REMARK   83  A    between atoms: _197  and  _198
REMARK   84  A    between atoms: _197  and  _200
REMARK   85  A    between atoms: _200  and  _201
REMARK   86  A    between atoms: _204  and  _206
REMARK   87  A    between atoms: _206  and  _207
REMARK   88  A    between atoms: _206  and  _209
REMARK   89  A    between atoms: _209  and  _210
REMARK   90  A    between atoms: _217  and  _218
REMARK   91  A    between atoms: _223  and  _225
REMARK   92  A    between atoms: _225  and  _226
REMARK   93  A    between atoms: _225  and  _228
REMARK   94  A    between atoms: _228  and  _229
REMARK   95  A    between atoms: _234  and  _236
REMARK   96  A    between atoms: _236  and  _237
REMARK   97  A    between atoms: _236  and  _239
REMARK   98  A    between atoms: _239  and  _240
REMARK   99  A    between atoms: _242  and  _244
REMARK  100  A    between atoms: _244  and  _245
REMARK  101  A    between atoms: _244  and  _247
REMARK  102  A    between atoms: _247  and  _248
REMARK  103  A    between atoms: _248  and  _249
REMARK  104  A    between atoms: _254  and  _256
REMARK  105  A    between atoms: _256  and  _257
REMARK  106  A    between atoms: _256  and  _259
REMARK  107  A    between atoms: _259  and  _260
REMARK  108  A    between atoms: _262  and  _264
REMARK  109  A    between atoms: _264  and  _265
REMARK  110  A    between atoms: _267  and  _269
REMARK  111  A    between atoms: _269  and  _270
REMARK  112  A    between atoms: _269  and  _272
REMARK  113  A    between atoms: _272  and  _273
REMARK  114  A    between atoms: _276  and  _278
REMARK  115  A    between atoms: _278  and  _279
REMARK  116  A    between atoms: _278  and  _281
REMARK  117  A    between atoms: _281  and  _282
REMARK  118  A    between atoms: _287  and  _289
REMARK  119  A    between atoms: _289  and  _290
REMARK  120  A    between atoms: _289  and  _292
REMARK  121  A    between atoms: _292  and  _293
REMARK  122  A    between atoms: _296  and  _298
REMARK  123  A    between atoms: _298  and  _299
REMARK  124  A    between atoms: _302  and  _304
REMARK  125  A    between atoms: _304  and  _305
REMARK  126  A    between atoms: _304  and  _307
REMARK  127  A    between atoms: _307  and  _308
REMARK  128  A    between atoms: _313  and  _314
REMARK  129  A    between atoms: _316  and  _318
REMARK  130  A    between atoms: _318  and  _319
REMARK  131  A    between atoms: _318  and  _321
REMARK  132  A    between atoms: _321  and  _322
REMARK  133  A    between atoms: _327  and  _328
REMARK  134  A    between atoms: _330  and  _332
REMARK  135  A    between atoms: _332  and  _333
REMARK  136  A    between atoms: _332  and  _335
REMARK  137  A    between atoms: _335  and  _336
REMARK  138  A    between atoms: _336  and  _337
REMARK  139  A    between atoms: _342  and  _344
REMARK  140  A    between atoms: _344  and  _345
REMARK  141  A    between atoms: _344  and  _347
REMARK  142  A    between atoms: _350  and  _352
REMARK  143  A    between atoms: _352  and  _353
REMARK  144  A    between atoms: _352  and  _355
REMARK  145  A    between atoms: _358  and  _360
REMARK  146  A    between atoms: _360  and  _361
REMARK  147  A    between atoms: _360  and  _363
REMARK  148  A    between atoms: _363  and  _364
REMARK  149  A    between atoms: _364  and  _365
REMARK  150  A    between atoms: _365  and  _366
REMARK  151  A    between atoms: _375  and  _377
REMARK  152  A    between atoms: _377  and  _378
REMARK  153  A    between atoms: _381  and  _383
REMARK  154  A    between atoms: _383  and  _384
REMARK  155  A    between atoms: _383  and  _386
REMARK  156  A    between atoms: _386  and  _387
REMARK  157  A    between atoms: _389  and  _391
REMARK  158  A    between atoms: _391  and  _392
REMARK  159  A    between atoms: _391  and  _394
REMARK  160  A    between atoms: _394  and  _395
REMARK  161  A    between atoms: _400  and  _402
REMARK  162  A    between atoms: _402  and  _403
REMARK  163  A    between atoms: _402  and  _405
REMARK  164  A    between atoms: _405  and  _406
REMARK  165  A    between atoms: _416  and  _418
REMARK  166  A    between atoms: _418  and  _419
REMARK  167  A    between atoms: _418  and  _421
REMARK  168  A    between atoms: _421  and  _422
REMARK  169  A    between atoms: _425  and  _427
REMARK  170  A    between atoms: _427  and  _428
REMARK  171  A    between atoms: _427  and  _430
REMARK  172  A    between atoms: _430  and  _431
REMARK  173  A    between atoms: _436  and  _437
REMARK  174  A    between atoms: _439  and  _441
REMARK  175  A    between atoms: _441  and  _442
REMARK  176  A    between atoms: _444  and  _446
REMARK  177  A    between atoms: _446  and  _447
REMARK  178  A    between atoms: _446  and  _449
REMARK  179  A    between atoms: _449  and  _450
REMARK  180  A    between atoms: _460  and  _462
REMARK  181  A    between atoms: _462  and  _463
REMARK  182  A    between atoms: _462  and  _465
REMARK  183  A    between atoms: _465  and  _466
REMARK  184  A    between atoms: _468  and  _470
REMARK  185  A    between atoms: _470  and  _471
REMARK  186  A    between atoms: _473  and  _475
REMARK  187  A    between atoms: _475  and  _476
REMARK  188  A    between atoms: _475  and  _478
REMARK  189  A    between atoms: _478  and  _479
REMARK  190  A    between atoms: _482  and  _484
REMARK  191  A    between atoms: _484  and  _485
REMARK  192  A    between atoms: _484  and  _487
REMARK  193  A    between atoms: _487  and  _488
REMARK  194  A    between atoms: _493  and  _495
REMARK  195  A    between atoms: _495  and  _496
REMARK  196  A    between atoms: _495  and  _498
REMARK  197  A    between atoms: _498  and  _499
REMARK  198  A    between atoms: _504  and  _506
REMARK  199  A    between atoms: _506  and  _507
REMARK  200  A    between atoms: _506  and  _509
REMARK  201  A    between atoms: _509  and  _510
REMARK  202  A    between atoms: _517  and  _518
REMARK  203  A    between atoms: _523  and  _525
REMARK  204  A    between atoms: _525  and  _526
REMARK  205  A    between atoms: _525  and  _528
REMARK  206  A    between atoms: _528  and  _529
REMARK  207  A    between atoms: _532  and  _534
REMARK  208  A    between atoms: _534  and  _535
REMARK  209  A    between atoms: _534  and  _537
REMARK  210  A    between atoms: _537  and  _538
REMARK  211  A    between atoms: _540  and  _542
REMARK  212  A    between atoms: _542  and  _543
REMARK  213  A    between atoms: _542  and  _545
REMARK  214  A    between atoms: _545  and  _546
REMARK  215  A    between atoms: _551  and  _552
REMARK  216  A    between atoms: _554  and  _556
REMARK  217  A    between atoms: _556  and  _557
REMARK  218  A    between atoms: _556  and  _559
REMARK  219  A    between atoms: _559  and  _560
REMARK  220  A    between atoms: _562  and  _564
REMARK  221  A    between atoms: _564  and  _565
REMARK  222  A    between atoms: _564  and  _567
REMARK  223  A    between atoms: _567  and  _568
REMARK  224  A    between atoms: _571  and  _573
REMARK  225  A    between atoms: _573  and  _574
REMARK  226  A    between atoms: _573  and  _576
REMARK  227  A    between atoms: _576  and  _577
REMARK  228  A    between atoms: _582  and  _584
REMARK  229  A    between atoms: _584  and  _585
REMARK  230  A    between atoms: _584  and  _587
REMARK  231  A    between atoms: _587  and  _588
REMARK  232  A    between atoms: _594  and  _596
REMARK  233  A    between atoms: _596  and  _597
REMARK  234  A    between atoms: _601  and  _602
REMARK  235  A    between atoms: _607  and  _609
REMARK  236  A    between atoms: _609  and  _610
REMARK  237  A    between atoms: _609  and  _612
REMARK  238  A    between atoms: _612  and  _613
REMARK  239  A    between atoms: _618  and  _619
REMARK  240  A    between atoms: _621  and  _623
REMARK  241  A    between atoms: _623  and  _624
REMARK  242  A    between atoms: _623  and  _626
REMARK  243  A    between atoms: _626  and  _627
REMARK  244  A    between atoms: _627  and  _628
REMARK  245  A    between atoms: _628  and  _629
REMARK  246  A    between atoms: _629  and  _630
REMARK  247  A    between atoms: _634  and  _636
REMARK  248  A    between atoms: _636  and  _637
REMARK  249  A    between atoms: _636  and  _639
REMARK  250  A    between atoms: _639  and  _640
REMARK  251  A    between atoms: _640  and  _641
REMARK  252  A    between atoms: _646  and  _648
REMARK  253  A    between atoms: _648  and  _649
REMARK  254  A    between atoms: _648  and  _651
REMARK  255  A    between atoms: _651  and  _652
REMARK  256  A    between atoms: _655  and  _656
REMARK  257  A    between atoms: _661  and  _663
REMARK  258  A    between atoms: _663  and  _664
REMARK  259  A    between atoms: _663  and  _666
REMARK  260  A    between atoms: _666  and  _667
REMARK  261  A    between atoms: _673  and  _675
REMARK  262  A    between atoms: _675  and  _676
REMARK  263  A    between atoms: _678  and  _680
REMARK  264  A    between atoms: _680  and  _681
REMARK  265  A    between atoms: _680  and  _683
REMARK  266  A    between atoms: _683  and  _684
REMARK  267  A    between atoms: _689  and  _690
REMARK  268  A    between atoms: _692  and  _694
REMARK  269  A    between atoms: _694  and  _695
REMARK  270  A    between atoms: _694  and  _697
REMARK  271  A    between atoms: _697  and  _698
REMARK  272  A    between atoms: _701  and  _703
REMARK  273  A    between atoms: _703  and  _704
REMARK  274  A    between atoms: _703  and  _706
REMARK  275  A    between atoms: _706  and  _707
REMARK  276  A    between atoms: _712  and  _713
REMARK                            x       y       z     vdW  Elec       q    Type
REMARK                         _______ _______ _______ _____ _____    ______ ____
ROOT
ATOM      1  O   HOH     1      13.519 -11.062  -3.027  0.00  0.00    +0.000 OA
ENDROOT
TORSDOF 0
REMARK  Name = ../refined-set-2016/3m8u/3m8u_pocket.pdb
REMARK  276 active torsions:
REMARK  status: ('A' for Active; 'I' for Inactive)
REMARK    1  A    between atoms: _1  and  _3
REMARK    2  A    between atoms: _3  and  _4
REMARK    3  A    between atoms: _3  and  _6
REMARK    4  A    between atoms: _6  and  _7
REMARK    5  A    between atoms: _12  and  _14
REMARK    6  A    between atoms: _14  and  _15
REMARK    7  A    between atoms: _14  and  _17
REMARK    8  A    between atoms: _20  and  _22
REMARK    9  A    between atoms: _22  and  _23
REMARK   10  A    between atoms: _22  and  _25
REMARK   11  A    between atoms: _25  and  _26
REMARK   12  A    between atoms: _28  and  _30
REMARK   13  A    between atoms: _30  and  _31
REMARK   14  A    between atoms: _30  and  _33
REMARK   15  A    between atoms: _33  and  _34
REMARK   16  A    between atoms: _34  and  _35
REMARK   17  A    between atoms: _35  and  _36
REMARK   18  A    between atoms: _45  and  _47
REMARK   19  A    between atoms: _47  and  _48
REMARK   20  A    between atoms: _47  and  _50
REMARK   21  A    between atoms: _50  and  _51
REMARK   22  A    between atoms: _54  and  _56
REMARK   23  A    between atoms: _56  and  _57
REMARK   24  A    between atoms: _56  and  _59
REMARK   25  A    between atoms: _62  and  _64
REMARK   26  A    between atoms: _64  and  _65
REMARK   27  A    between atoms: _64  and  _67
REMARK   28  A    between atoms: _67  and  _68
REMARK   29  A    between atoms: _68  and  _69
REMARK   30  A    between atoms: _71  and  _73
REMARK   31  A    between atoms: _73  and  _74
REMARK   32  A    between atoms: _73  and  _76
REMARK   33  A    between atoms: _76  and  _77
REMARK   34  A    between atoms: _80  and  _82
REMARK   35  A    between atoms: _82  and  _83
REMARK   36  A    between atoms: _85  and  _87
REMARK   37  A    between atoms: _87  and  _88
REMARK   38  A    between atoms: _87  and  _90
REMARK   39  A    between atoms: _90  and  _91
REMARK   40  A    between atoms: _94  and  _96
REMARK   41  A    between atoms: _96  and  _97
REMARK   42  A    between atoms: _96  and  _99
REMARK   43  A    between atoms: _99  and  _100
REMARK   44  A    between atoms: _102  and  _104
REMARK   45  A    between atoms: _104  and  _105
REMARK   46  A    between atoms: _104  and  _107
REMARK   47  A    between atoms: _107  and  _108
REMARK   48  A    between atoms: _113  and  _114
REMARK   49  A    between atoms: _116  and  _118
REMARK   50  A    between atoms: _118  and  _119
REMARK   51  A    between atoms: _118  and  _121
REMARK   52  A    between atoms: _121  and  _122
REMARK   53  A    between atoms: _127  and  _129
REMARK   54  A    between atoms: _129  and  _130
REMARK   55  A    between atoms: _133  and  _135
REMARK   56  A    between atoms: _135  and  _136
REMARK   57  A    between atoms: _135  and  _138
REMARK   58  A    between atoms: _138  and  _139
REMARK   59  A    between atoms: _139  and  _140
REMARK   60  A    between atoms: _145  and  _147
REMARK   61  A    between atoms: _147  and  _148
REMARK   62  A    between atoms: _147  and  _150
REMARK   63  A    between atoms: _150  and  _151
REMARK   64  A    between atoms: _156  and  _157
REMARK   65  A    between atoms: _159  and  _161
REMARK   66  A    between atoms: _161  and  _162
REMARK   67  A    between atoms: _161  and  _164
REMARK   68  A    between atoms: _164  and  _165
REMARK   69  A    between atoms: _165  and  _166
REMARK   70  A    between atoms: _168  and  _170
REMARK   71  A    between atoms: _170  and  _171
REMARK   72  A    between atoms: _170  and  _173
REMARK   73  A    between atoms: _173  and  _174
REMARK   74  A    between atoms: _177  and  _179
REMARK   75  A    between atoms: _179  and  _180
REMARK   76  A    between atoms: _179  and  _182
REMARK   77  A    between atoms: _182  and  _183
REMARK   78  A    between atoms: _186  and  _188
REMARK   79  A    between atoms: _188  and  _189
REMARK   80  A    between atoms: _188  and  _191
REMARK   81  A    between atoms: _191  and  _192
REMARK   82  A    between atoms: _195  and  _197
REMARK   83  A    between atoms: _197  and  _198
REMARK   84  A    between atoms: _197  and  _200
REMARK   85  A    between atoms: _200  and  _201
REMARK   86  A    between atoms: _204  and  _206
REMARK   87  A    between atoms: _206  and  _207
REMARK   88  A    between atoms: _206  and  _209
REMARK   89  A    between atoms: _209  and  _210
REMARK   90  A    between atoms: _217  and  _218
REMARK   91  A    between atoms: _223  and  _225
REMARK   92  A    between atoms: _225  and  _226
REMARK   93  A    between atoms: _225  and  _228
REMARK   94  A    between atoms: _228  and  _229
REMARK   95  A    between atoms: _234  and  _236
REMARK   96  A    between atoms: _236  and  _237
REMARK   97  A    between atoms: _236  and  _239
REMARK   98  A    between atoms: _239  and  _240
REMARK   99  A    between atoms: _242  and  _244
REMARK  100  A    between atoms: _244  and  _245
REMARK  101  A    between atoms: _244  and  _247
REMARK  102  A    between atoms: _247  and  _248
REMARK  103  A    between atoms: _248  and  _249
REMARK  104  A    between atoms: _254  and  _256
REMARK  105  A    between atoms: _256  and  _257
REMARK  106  A    between atoms: _256  and  _259
REMARK  107  A    between atoms: _259  and  _260
REMARK  108  A    between atoms: _262  and  _264
REMARK  109  A    between atoms: _264  and  _265
REMARK  110  A    between atoms: _267  and  _269
REMARK  111  A    between atoms: _269  and  _270
REMARK  112  A    between atoms: _269  and  _272
REMARK  113  A    between atoms: _272  and  _273
REMARK  114  A    between atoms: _276  and  _278
REMARK  115  A    between atoms: _278  and  _279
REMARK  116  A    between atoms: _278  and  _281
REMARK  117  A    between atoms: _281  and  _282
REMARK  118  A    between atoms: _287  and  _289
REMARK  119  A    between atoms: _289  and  _290
REMARK  120  A    between atoms: _289  and  _292
REMARK  121  A    between atoms: _292  and  _293
REMARK  122  A    between atoms: _296  and  _298
REMARK  123  A    between atoms: _298  and  _299
REMARK  124  A    between atoms: _302  and  _304
REMARK  125  A    between atoms: _304  and  _305
REMARK  126  A    between atoms: _304  and  _307
REMARK  127  A    between atoms: _307  and  _308
REMARK  128  A    between atoms: _313  and  _314
REMARK  129  A    between atoms: _316  and  _318
REMARK  130  A    between atoms: _318  and  _319
REMARK  131  A    between atoms: _318  and  _321
REMARK  132  A    between atoms: _321  and  _322
REMARK  133  A    between atoms: _327  and  _328
REMARK  134  A    between atoms: _330  and  _332
REMARK  135  A    between atoms: _332  and  _333
REMARK  136  A    between atoms: _332  and  _335
REMARK  137  A    between atoms: _335  and  _336
REMARK  138  A    between atoms: _336  and  _337
REMARK  139  A    between atoms: _342  and  _344
REMARK  140  A    between atoms: _344  and  _345
REMARK  141  A    between atoms: _344  and  _347
REMARK  142  A    between atoms: _350  and  _352
REMARK  143  A    between atoms: _352  and  _353
REMARK  144  A    between atoms: _352  and  _355
REMARK  145  A    between atoms: _358  and  _360
REMARK  146  A    between atoms: _360  and  _361
REMARK  147  A    between atoms: _360  and  _363
REMARK  148  A    between atoms: _363  and  _364
REMARK  149  A    between atoms: _364  and  _365
REMARK  150  A    between atoms: _365  and  _366
REMARK  151  A    between atoms: _375  and  _377
REMARK  152  A    between atoms: _377  and  _378
REMARK  153  A    between atoms: _381  and  _383
REMARK  154  A    between atoms: _383  and  _384
REMARK  155  A    between atoms: _383  and  _386
REMARK  156  A    between atoms: _386  and  _387
REMARK  157  A    between atoms: _389  and  _391
REMARK  158  A    between atoms: _391  and  _392
REMARK  159  A    between atoms: _391  and  _394
REMARK  160  A    between atoms: _394  and  _395
REMARK  161  A    between atoms: _400  and  _402
REMARK  162  A    between atoms: _402  and  _403
REMARK  163  A    between atoms: _402  and  _405
REMARK  164  A    between atoms: _405  and  _406
REMARK  165  A    between atoms: _416  and  _418
REMARK  166  A    between atoms: _418  and  _419
REMARK  167  A    between atoms: _418  and  _421
REMARK  168  A    between atoms: _421  and  _422
REMARK  169  A    between atoms: _425  and  _427
REMARK  170  A    between atoms: _427  and  _428
REMARK  171  A    between atoms: _427  and  _430
REMARK  172  A    between atoms: _430  and  _431
REMARK  173  A    between atoms: _436  and  _437
REMARK  174  A    between atoms: _439  and  _441
REMARK  175  A    between atoms: _441  and  _442
REMARK  176  A    between atoms: _444  and  _446
REMARK  177  A    between atoms: _446  and  _447
REMARK  178  A    between atoms: _446  and  _449
REMARK  179  A    between atoms: _449  and  _450
REMARK  180  A    between atoms: _460  and  _462
REMARK  181  A    between atoms: _462  and  _463
REMARK  182  A    between atoms: _462  and  _465
REMARK  183  A    between atoms: _465  and  _466
REMARK  184  A    between atoms: _468  and  _470
REMARK  185  A    between atoms: _470  and  _471
REMARK  186  A    between atoms: _473  and  _475
REMARK  187  A    between atoms: _475  and  _476
REMARK  188  A    between atoms: _475  and  _478
REMARK  189  A    between atoms: _478  and  _479
REMARK  190  A    between atoms: _482  and  _484
REMARK  191  A    between atoms: _484  and  _485
REMARK  192  A    between atoms: _484  and  _487
REMARK  193  A    between atoms: _487  and  _488
REMARK  194  A    between atoms: _493  and  _495
REMARK  195  A    between atoms: _495  and  _496
REMARK  196  A    between atoms: _495  and  _498
REMARK  197  A    between atoms: _498  and  _499
REMARK  198  A    between atoms: _504  and  _506
REMARK  199  A    between atoms: _506  and  _507
REMARK  200  A    between atoms: _506  and  _509
REMARK  201  A    between atoms: _509  and  _510
REMARK  202  A    between atoms: _517  and  _518
REMARK  203  A    between atoms: _523  and  _525
REMARK  204  A    between atoms: _525  and  _526
REMARK  205  A    between atoms: _525  and  _528
REMARK  206  A    between atoms: _528  and  _529
REMARK  207  A    between atoms: _532  and  _534
REMARK  208  A    between atoms: _534  and  _535
REMARK  209  A    between atoms: _534  and  _537
REMARK  210  A    between atoms: _537  and  _538
REMARK  211  A    between atoms: _540  and  _542
REMARK  212  A    between atoms: _542  and  _543
REMARK  213  A    between atoms: _542  and  _545
REMARK  214  A    between atoms: _545  and  _546
REMARK  215  A    between atoms: _551  and  _552
REMARK  216  A    between atoms: _554  and  _556
REMARK  217  A    between atoms: _556  and  _557
REMARK  218  A    between atoms: _556  and  _559
REMARK  219  A    between atoms: _559  and  _560
REMARK  220  A    between atoms: _562  and  _564
REMARK  221  A    between atoms: _564  and  _565
REMARK  222  A    between atoms: _564  and  _567
REMARK  223  A    between atoms: _567  and  _568
REMARK  224  A    between atoms: _571  and  _573
REMARK  225  A    between atoms: _573  and  _574
REMARK  226  A    between atoms: _573  and  _576
REMARK  227  A    between atoms: _576  and  _577
REMARK  228  A    between atoms: _582  and  _584
REMARK  229  A    between atoms: _584  and  _585
REMARK  230  A    between atoms: _584  and  _587
REMARK  231  A    between atoms: _587  and  _588
REMARK  232  A    between atoms: _594  and  _596
REMARK  233  A    between atoms: _596  and  _597
REMARK  234  A    between atoms: _601  and  _602
REMARK  235  A    between atoms: _607  and  _609
REMARK  236  A    between atoms: _609  and  _610
REMARK  237  A    between atoms: _609  and  _612
REMARK  238  A    between atoms: _612  and  _613
REMARK  239  A    between atoms: _618  and  _619
REMARK  240  A    between atoms: _621  and  _623
REMARK  241  A    between atoms: _623  and  _624
REMARK  242  A    between atoms: _623  and  _626
REMARK  243  A    between atoms: _626  and  _627
REMARK  244  A    between atoms: _627  and  _628
REMARK  245  A    between atoms: _628  and  _629
REMARK  246  A    between atoms: _629  and  _630
REMARK  247  A    between atoms: _634  and  _636
REMARK  248  A    between atoms: _636  and  _637
REMARK  249  A    between atoms: _636  and  _639
REMARK  250  A    between atoms: _639  and  _640
REMARK  251  A    between atoms: _640  and  _641
REMARK  252  A    between atoms: _646  and  _648
REMARK  253  A    between atoms: _648  and  _649
REMARK  254  A    between atoms: _648  and  _651
REMARK  255  A    between atoms: _651  and  _652
REMARK  256  A    between atoms: _655  and  _656
REMARK  257  A    between atoms: _661  and  _663
REMARK  258  A    between atoms: _663  and  _664
REMARK  259  A    between atoms: _663  and  _666
REMARK  260  A    between atoms: _666  and  _667
REMARK  261  A    between atoms: _673  and  _675
REMARK  262  A    between atoms: _675  and  _676
REMARK  263  A    between atoms: _678  and  _680
REMARK  264  A    between atoms: _680  and  _681
REMARK  265  A    between atoms: _680  and  _683
REMARK  266  A    between atoms: _683  and  _684
REMARK  267  A    between atoms: _689  and  _690
REMARK  268  A    between atoms: _692  and  _694
REMARK  269  A    between atoms: _694  and  _695
REMARK  270  A    between atoms: _694  and  _697
REMARK  271  A    between atoms: _697  and  _698
REMARK  272  A    between atoms: _701  and  _703
REMARK  273  A    between atoms: _703  and  _704
REMARK  274  A    between atoms: _703  and  _706
REMARK  275  A    between atoms: _706  and  _707
REMARK  276  A    between atoms: _712  and  _713
REMARK                            x       y       z     vdW  Elec       q    Type
REMARK                         _______ _______ _______ _____ _____    ______ ____
ROOT
ATOM      1  O   HOH     1      24.955 -20.580 -16.242  0.00  0.00    +0.000 OA
ENDROOT
TORSDOF 0
REMARK  Name = ../refined-set-2016/3m8u/3m8u_pocket.pdb
REMARK  276 active torsions:
REMARK  status: ('A' for Active; 'I' for Inactive)
REMARK    1  A    between atoms: _1  and  _3
REMARK    2  A    between atoms: _3  and  _4
REMARK    3  A    between atoms: _3  and  _6
REMARK    4  A    between atoms: _6  and  _7
REMARK    5  A    between atoms: _12  and  _14
REMARK    6  A    between atoms: _14  and  _15
REMARK    7  A    between atoms: _14  and  _17
REMARK    8  A    between atoms: _20  and  _22
REMARK    9  A    between atoms: _22  and  _23
REMARK   10  A    between atoms: _22  and  _25
REMARK   11  A    between atoms: _25  and  _26
REMARK   12  A    between atoms: _28  and  _30
REMARK   13  A    between atoms: _30  and  _31
REMARK   14  A    between atoms: _30  and  _33
REMARK   15  A    between atoms: _33  and  _34
REMARK   16  A    between atoms: _34  and  _35
REMARK   17  A    between atoms: _35  and  _36
REMARK   18  A    between atoms: _45  and  _47
REMARK   19  A    between atoms: _47  and  _48
REMARK   20  A    between atoms: _47  and  _50
REMARK   21  A    between atoms: _50  and  _51
REMARK   22  A    between atoms: _54  and  _56
REMARK   23  A    between atoms: _56  and  _57
REMARK   24  A    between atoms: _56  and  _59
REMARK   25  A    between atoms: _62  and  _64
REMARK   26  A    between atoms: _64  and  _65
REMARK   27  A    between atoms: _64  and  _67
REMARK   28  A    between atoms: _67  and  _68
REMARK   29  A    between atoms: _68  and  _69
REMARK   30  A    between atoms: _71  and  _73
REMARK   31  A    between atoms: _73  and  _74
REMARK   32  A    between atoms: _73  and  _76
REMARK   33  A    between atoms: _76  and  _77
REMARK   34  A    between atoms: _80  and  _82
REMARK   35  A    between atoms: _82  and  _83
REMARK   36  A    between atoms: _85  and  _87
REMARK   37  A    between atoms: _87  and  _88
REMARK   38  A    between atoms: _87  and  _90
REMARK   39  A    between atoms: _90  and  _91
REMARK   40  A    between atoms: _94  and  _96
REMARK   41  A    between atoms: _96  and  _97
REMARK   42  A    between atoms: _96  and  _99
REMARK   43  A    between atoms: _99  and  _100
REMARK   44  A    between atoms: _102  and  _104
REMARK   45  A    between atoms: _104  and  _105
REMARK   46  A    between atoms: _104  and  _107
REMARK   47  A    between atoms: _107  and  _108
REMARK   48  A    between atoms: _113  and  _114
REMARK   49  A    between atoms: _116  and  _118
REMARK   50  A    between atoms: _118  and  _119
REMARK   51  A    between atoms: _118  and  _121
REMARK   52  A    between atoms: _121  and  _122
REMARK   53  A    between atoms: _127  and  _129
REMARK   54  A    between atoms: _129  and  _130
REMARK   55  A    between atoms: _133  and  _135
REMARK   56  A    between atoms: _135  and  _136
REMARK   57  A    between atoms: _135  and  _138
REMARK   58  A    between atoms: _138  and  _139
REMARK   59  A    between atoms: _139  and  _140
REMARK   60  A    between atoms: _145  and  _147
REMARK   61  A    between atoms: _147  and  _148
REMARK   62  A    between atoms: _147  and  _150
REMARK   63  A    between atoms: _150  and  _151
REMARK   64  A    between atoms: _156  and  _157
REMARK   65  A    between atoms: _159  and  _161
REMARK   66  A    between atoms: _161  and  _162
REMARK   67  A    between atoms: _161  and  _164
REMARK   68  A    between atoms: _164  and  _165
REMARK   69  A    between atoms: _165  and  _166
REMARK   70  A    between atoms: _168  and  _170
REMARK   71  A    between atoms: _170  and  _171
REMARK   72  A    between atoms: _170  and  _173
REMARK   73  A    between atoms: _173  and  _174
REMARK   74  A    between atoms: _177  and  _179
REMARK   75  A    between atoms: _179  and  _180
REMARK   76  A    between atoms: _179  and  _182
REMARK   77  A    between atoms: _182  and  _183
REMARK   78  A    between atoms: _186  and  _188
REMARK   79  A    between atoms: _188  and  _189
REMARK   80  A    between atoms: _188  and  _191
REMARK   81  A    between atoms: _191  and  _192
REMARK   82  A    between atoms: _195  and  _197
REMARK   83  A    between atoms: _197  and  _198
REMARK   84  A    between atoms: _197  and  _200
REMARK   85  A    between atoms: _200  and  _201
REMARK   86  A    between atoms: _204  and  _206
REMARK   87  A    between atoms: _206  and  _207
REMARK   88  A    between atoms: _206  and  _209
REMARK   89  A    between atoms: _209  and  _210
REMARK   90  A    between atoms: _217  and  _218
REMARK   91  A    between atoms: _223  and  _225
REMARK   92  A    between atoms: _225  and  _226
REMARK   93  A    between atoms: _225  and  _228
REMARK   94  A    between atoms: _228  and  _229
REMARK   95  A    between atoms: _234  and  _236
REMARK   96  A    between atoms: _236  and  _237
REMARK   97  A    between atoms: _236  and  _239
REMARK   98  A    between atoms: _239  and  _240
REMARK   99  A    between atoms: _242  and  _244
REMARK  100  A    between atoms: _244  and  _245
REMARK  101  A    between atoms: _244  and  _247
REMARK  102  A    between atoms: _247  and  _248
REMARK  103  A    between atoms: _248  and  _249
REMARK  104  A    between atoms: _254  and  _256
REMARK  105  A    between atoms: _256  and  _257
REMARK  106  A    between atoms: _256  and  _259
REMARK  107  A    between atoms: _259  and  _260
REMARK  108  A    between atoms: _262  and  _264
REMARK  109  A    between atoms: _264  and  _265
REMARK  110  A    between atoms: _267  and  _269
REMARK  111  A    between atoms: _269  and  _270
REMARK  112  A    between atoms: _269  and  _272
REMARK  113  A    between atoms: _272  and  _273
REMARK  114  A    between atoms: _276  and  _278
REMARK  115  A    between atoms: _278  and  _279
REMARK  116  A    between atoms: _278  and  _281
REMARK  117  A    between atoms: _281  and  _282
REMARK  118  A    between atoms: _287  and  _289
REMARK  119  A    between atoms: _289  and  _290
REMARK  120  A    between atoms: _289  and  _292
REMARK  121  A    between atoms: _292  and  _293
REMARK  122  A    between atoms: _296  and  _298
REMARK  123  A    between atoms: _298  and  _299
REMARK  124  A    between atoms: _302  and  _304
REMARK  125  A    between atoms: _304  and  _305
REMARK  126  A    between atoms: _304  and  _307
REMARK  127  A    between atoms: _307  and  _308
REMARK  128  A    between atoms: _313  and  _314
REMARK  129  A    between atoms: _316  and  _318
REMARK  130  A    between atoms: _318  and  _319
REMARK  131  A    between atoms: _318  and  _321
REMARK  132  A    between atoms: _321  and  _322
REMARK  133  A    between atoms: _327  and  _328
REMARK  134  A    between atoms: _330  and  _332
REMARK  135  A    between atoms: _332  and  _333
REMARK  136  A    between atoms: _332  and  _335
REMARK  137  A    between atoms: _335  and  _336
REMARK  138  A    between atoms: _336  and  _337
REMARK  139  A    between atoms: _342  and  _344
REMARK  140  A    between atoms: _344  and  _345
REMARK  141  A    between atoms: _344  and  _347
REMARK  142  A    between atoms: _350  and  _352
REMARK  143  A    between atoms: _352  and  _353
REMARK  144  A    between atoms: _352  and  _355
REMARK  145  A    between atoms: _358  and  _360
REMARK  146  A    between atoms: _360  and  _361
REMARK  147  A    between atoms: _360  and  _363
REMARK  148  A    between atoms: _363  and  _364
REMARK  149  A    between atoms: _364  and  _365
REMARK  150  A    between atoms: _365  and  _366
REMARK  151  A    between atoms: _375  and  _377
REMARK  152  A    between atoms: _377  and  _378
REMARK  153  A    between atoms: _381  and  _383
REMARK  154  A    between atoms: _383  and  _384
REMARK  155  A    between atoms: _383  and  _386
REMARK  156  A    between atoms: _386  and  _387
REMARK  157  A    between atoms: _389  and  _391
REMARK  158  A    between atoms: _391  and  _392
REMARK  159  A    between atoms: _391  and  _394
REMARK  160  A    between atoms: _394  and  _395
REMARK  161  A    between atoms: _400  and  _402
REMARK  162  A    between atoms: _402  and  _403
REMARK  163  A    between atoms: _402  and  _405
REMARK  164  A    between atoms: _405  and  _406
REMARK  165  A    between atoms: _416  and  _418
REMARK  166  A    between atoms: _418  and  _419
REMARK  167  A    between atoms: _418  and  _421
REMARK  168  A    between atoms: _421  and  _422
REMARK  169  A    between atoms: _425  and  _427
REMARK  170  A    between atoms: _427  and  _428
REMARK  171  A    between atoms: _427  and  _430
REMARK  172  A    between atoms: _430  and  _431
REMARK  173  A    between atoms: _436  and  _437
REMARK  174  A    between atoms: _439  and  _441
REMARK  175  A    between atoms: _441  and  _442
REMARK  176  A    between atoms: _444  and  _446
REMARK  177  A    between atoms: _446  and  _447
REMARK  178  A    between atoms: _446  and  _449
REMARK  179  A    between atoms: _449  and  _450
REMARK  180  A    between atoms: _460  and  _462
REMARK  181  A    between atoms: _462  and  _463
REMARK  182  A    between atoms: _462  and  _465
REMARK  183  A    between atoms: _465  and  _466
REMARK  184  A    between atoms: _468  and  _470
REMARK  185  A    between atoms: _470  and  _471
REMARK  186  A    between atoms: _473  and  _475
REMARK  187  A    between atoms: _475  and  _476
REMARK  188  A    between atoms: _475  and  _478
REMARK  189  A    between atoms: _478  and  _479
REMARK  190  A    between atoms: _482  and  _484
REMARK  191  A    between atoms: _484  and  _485
REMARK  192  A    between atoms: _484  and  _487
REMARK  193  A    between atoms: _487  and  _488
REMARK  194  A    between atoms: _493  and  _495
REMARK  195  A    between atoms: _495  and  _496
REMARK  196  A    between atoms: _495  and  _498
REMARK  197  A    between atoms: _498  and  _499
REMARK  198  A    between atoms: _504  and  _506
REMARK  199  A    between atoms: _506  and  _507
REMARK  200  A    between atoms: _506  and  _509
REMARK  201  A    between atoms: _509  and  _510
REMARK  202  A    between atoms: _517  and  _518
REMARK  203  A    between atoms: _523  and  _525
REMARK  204  A    between atoms: _525  and  _526
REMARK  205  A    between atoms: _525  and  _528
REMARK  206  A    between atoms: _528  and  _529
REMARK  207  A    between atoms: _532  and  _534
REMARK  208  A    between atoms: _534  and  _535
REMARK  209  A    between atoms: _534  and  _537
REMARK  210  A    between atoms: _537  and  _538
REMARK  211  A    between atoms: _540  and  _542
REMARK  212  A    between atoms: _542  and  _543
REMARK  213  A    between atoms: _542  and  _545
REMARK  214  A    between atoms: _545  and  _546
REMARK  215  A    between atoms: _551  and  _552
REMARK  216  A    between atoms: _554  and  _556
REMARK  217  A    between atoms: _556  and  _557
REMARK  218  A    between atoms: _556  and  _559
REMARK  219  A    between atoms: _559  and  _560
REMARK  220  A    between atoms: _562  and  _564
REMARK  221  A    between atoms: _564  and  _565
REMARK  222  A    between atoms: _564  and  _567
REMARK  223  A    between atoms: _567  and  _568
REMARK  224  A    between atoms: _571  and  _573
REMARK  225  A    between atoms: _573  and  _574
REMARK  226  A    between atoms: _573  and  _576
REMARK  227  A    between atoms: _576  and  _577
REMARK  228  A    between atoms: _582  and  _584
REMARK  229  A    between atoms: _584  and  _585
REMARK  230  A    between atoms: _584  and  _587
REMARK  231  A    between atoms: _587  and  _588
REMARK  232  A    between atoms: _594  and  _596
REMARK  233  A    between atoms: _596  and  _597
REMARK  234  A    between atoms: _601  and  _602
REMARK  235  A    between atoms: _607  and  _609
REMARK  236  A    between atoms: _609  and  _610
REMARK  237  A    between atoms: _609  and  _612
REMARK  238  A    between atoms: _612  and  _613
REMARK  239  A    between atoms: _618  and  _619
REMARK  240  A    between atoms: _621  and  _623
REMARK  241  A    between atoms: _623  and  _624
REMARK  242  A    between atoms: _623  and  _626
REMARK  243  A    between atoms: _626  and  _627
REMARK  244  A    between atoms: _627  and  _628
REMARK  245  A    between atoms: _628  and  _629
REMARK  246  A    between atoms: _629  and  _630
REMARK  247  A    between atoms: _634  and  _636
REMARK  248  A    between atoms: _636  and  _637
REMARK  249  A    between atoms: _636  and  _639
REMARK  250  A    between atoms: _639  and  _640
REMARK  251  A    between atoms: _640  and  _641
REMARK  252  A    between atoms: _646  and  _648
REMARK  253  A    between atoms: _648  and  _649
REMARK  254  A    between atoms: _648  and  _651
REMARK  255  A    between atoms: _651  and  _652
REMARK  256  A    between atoms: _655  and  _656
REMARK  257  A    between atoms: _661  and  _663
REMARK  258  A    between atoms: _663  and  _664
REMARK  259  A    between atoms: _663  and  _666
REMARK  260  A    between atoms: _666  and  _667
REMARK  261  A    between atoms: _673  and  _675
REMARK  262  A    between atoms: _675  and  _676
REMARK  263  A    between atoms: _678  and  _680
REMARK  264  A    between atoms: _680  and  _681
REMARK  265  A    between atoms: _680  and  _683
REMARK  266  A    between atoms: _683  and  _684
REMARK  267  A    between atoms: _689  and  _690
REMARK  268  A    between atoms: _692  and  _694
REMARK  269  A    between atoms: _694  and  _695
REMARK  270  A    between atoms: _694  and  _697
REMARK  271  A    between atoms: _697  and  _698
REMARK  272  A    between atoms: _701  and  _703
REMARK  273  A    between atoms: _703  and  _704
REMARK  274  A    between atoms: _703  and  _706
REMARK  275  A    between atoms: _706  and  _707
REMARK  276  A    between atoms: _712  and  _713
REMARK                            x       y       z     vdW  Elec       q    Type
REMARK                         _______ _______ _______ _____ _____    ______ ____
ROOT
ATOM      1  O   HOH     1      11.788 -11.996  -4.524  0.00  0.00    +0.000 OA
ENDROOT
TORSDOF 0
REMARK  Name = ../refined-set-2016/3m8u/3m8u_pocket.pdb
REMARK  276 active torsions:
REMARK  status: ('A' for Active; 'I' for Inactive)
REMARK    1  A    between atoms: _1  and  _3
REMARK    2  A    between atoms: _3  and  _4
REMARK    3  A    between atoms: _3  and  _6
REMARK    4  A    between atoms: _6  and  _7
REMARK    5  A    between atoms: _12  and  _14
REMARK    6  A    between atoms: _14  and  _15
REMARK    7  A    between atoms: _14  and  _17
REMARK    8  A    between atoms: _20  and  _22
REMARK    9  A    between atoms: _22  and  _23
REMARK   10  A    between atoms: _22  and  _25
REMARK   11  A    between atoms: _25  and  _26
REMARK   12  A    between atoms: _28  and  _30
REMARK   13  A    between atoms: _30  and  _31
REMARK   14  A    between atoms: _30  and  _33
REMARK   15  A    between atoms: _33  and  _34
REMARK   16  A    between atoms: _34  and  _35
REMARK   17  A    between atoms: _35  and  _36
REMARK   18  A    between atoms: _45  and  _47
REMARK   19  A    between atoms: _47  and  _48
REMARK   20  A    between atoms: _47  and  _50
REMARK   21  A    between atoms: _50  and  _51
REMARK   22  A    between atoms: _54  and  _56
REMARK   23  A    between atoms: _56  and  _57
REMARK   24  A    between atoms: _56  and  _59
REMARK   25  A    between atoms: _62  and  _64
REMARK   26  A    between atoms: _64  and  _65
REMARK   27  A    between atoms: _64  and  _67
REMARK   28  A    between atoms: _67  and  _68
REMARK   29  A    between atoms: _68  and  _69
REMARK   30  A    between atoms: _71  and  _73
REMARK   31  A    between atoms: _73  and  _74
REMARK   32  A    between atoms: _73  and  _76
REMARK   33  A    between atoms: _76  and  _77
REMARK   34  A    between atoms: _80  and  _82
REMARK   35  A    between atoms: _82  and  _83
REMARK   36  A    between atoms: _85  and  _87
REMARK   37  A    between atoms: _87  and  _88
REMARK   38  A    between atoms: _87  and  _90
REMARK   39  A    between atoms: _90  and  _91
REMARK   40  A    between atoms: _94  and  _96
REMARK   41  A    between atoms: _96  and  _97
REMARK   42  A    between atoms: _96  and  _99
REMARK   43  A    between atoms: _99  and  _100
REMARK   44  A    between atoms: _102  and  _104
REMARK   45  A    between atoms: _104  and  _105
REMARK   46  A    between atoms: _104  and  _107
REMARK   47  A    between atoms: _107  and  _108
REMARK   48  A    between atoms: _113  and  _114
REMARK   49  A    between atoms: _116  and  _118
REMARK   50  A    between atoms: _118  and  _119
REMARK   51  A    between atoms: _118  and  _121
REMARK   52  A    between atoms: _121  and  _122
REMARK   53  A    between atoms: _127  and  _129
REMARK   54  A    between atoms: _129  and  _130
REMARK   55  A    between atoms: _133  and  _135
REMARK   56  A    between atoms: _135  and  _136
REMARK   57  A    between atoms: _135  and  _138
REMARK   58  A    between atoms: _138  and  _139
REMARK   59  A    between atoms: _139  and  _140
REMARK   60  A    between atoms: _145  and  _147
REMARK   61  A    between atoms: _147  and  _148
REMARK   62  A    between atoms: _147  and  _150
REMARK   63  A    between atoms: _150  and  _151
REMARK   64  A    between atoms: _156  and  _157
REMARK   65  A    between atoms: _159  and  _161
REMARK   66  A    between atoms: _161  and  _162
REMARK   67  A    between atoms: _161  and  _164
REMARK   68  A    between atoms: _164  and  _165
REMARK   69  A    between atoms: _165  and  _166
REMARK   70  A    between atoms: _168  and  _170
REMARK   71  A    between atoms: _170  and  _171
REMARK   72  A    between atoms: _170  and  _173
REMARK   73  A    between atoms: _173  and  _174
REMARK   74  A    between atoms: _177  and  _179
REMARK   75  A    between atoms: _179  and  _180
REMARK   76  A    between atoms: _179  and  _182
REMARK   77  A    between atoms: _182  and  _183
REMARK   78  A    between atoms: _186  and  _188
REMARK   79  A    between atoms: _188  and  _189
REMARK   80  A    between atoms: _188  and  _191
REMARK   81  A    between atoms: _191  and  _192
REMARK   82  A    between atoms: _195  and  _197
REMARK   83  A    between atoms: _197  and  _198
REMARK   84  A    between atoms: _197  and  _200
REMARK   85  A    between atoms: _200  and  _201
REMARK   86  A    between atoms: _204  and  _206
REMARK   87  A    between atoms: _206  and  _207
REMARK   88  A    between atoms: _206  and  _209
REMARK   89  A    between atoms: _209  and  _210
REMARK   90  A    between atoms: _217  and  _218
REMARK   91  A    between atoms: _223  and  _225
REMARK   92  A    between atoms: _225  and  _226
REMARK   93  A    between atoms: _225  and  _228
REMARK   94  A    between atoms: _228  and  _229
REMARK   95  A    between atoms: _234  and  _236
REMARK   96  A    between atoms: _236  and  _237
REMARK   97  A    between atoms: _236  and  _239
REMARK   98  A    between atoms: _239  and  _240
REMARK   99  A    between atoms: _242  and  _244
REMARK  100  A    between atoms: _244  and  _245
REMARK  101  A    between atoms: _244  and  _247
REMARK  102  A    between atoms: _247  and  _248
REMARK  103  A    between atoms: _248  and  _249
REMARK  104  A    between atoms: _254  and  _256
REMARK  105  A    between atoms: _256  and  _257
REMARK  106  A    between atoms: _256  and  _259
REMARK  107  A    between atoms: _259  and  _260
REMARK  108  A    between atoms: _262  and  _264
REMARK  109  A    between atoms: _264  and  _265
REMARK  110  A    between atoms: _267  and  _269
REMARK  111  A    between atoms: _269  and  _270
REMARK  112  A    between atoms: _269  and  _272
REMARK  113  A    between atoms: _272  and  _273
REMARK  114  A    between atoms: _276  and  _278
REMARK  115  A    between atoms: _278  and  _279
REMARK  116  A    between atoms: _278  and  _281
REMARK  117  A    between atoms: _281  and  _282
REMARK  118  A    between atoms: _287  and  _289
REMARK  119  A    between atoms: _289  and  _290
REMARK  120  A    between atoms: _289  and  _292
REMARK  121  A    between atoms: _292  and  _293
REMARK  122  A    between atoms: _296  and  _298
REMARK  123  A    between atoms: _298  and  _299
REMARK  124  A    between atoms: _302  and  _304
REMARK  125  A    between atoms: _304  and  _305
REMARK  126  A    between atoms: _304  and  _307
REMARK  127  A    between atoms: _307  and  _308
REMARK  128  A    between atoms: _313  and  _314
REMARK  129  A    between atoms: _316  and  _318
REMARK  130  A    between atoms: _318  and  _319
REMARK  131  A    between atoms: _318  and  _321
REMARK  132  A    between atoms: _321  and  _322
REMARK  133  A    between atoms: _327  and  _328
REMARK  134  A    between atoms: _330  and  _332
REMARK  135  A    between atoms: _332  and  _333
REMARK  136  A    between atoms: _332  and  _335
REMARK  137  A    between atoms: _335  and  _336
REMARK  138  A    between atoms: _336  and  _337
REMARK  139  A    between atoms: _342  and  _344
REMARK  140  A    between atoms: _344  and  _345
REMARK  141  A    between atoms: _344  and  _347
REMARK  142  A    between atoms: _350  and  _352
REMARK  143  A    between atoms: _352  and  _353
REMARK  144  A    between atoms: _352  and  _355
REMARK  145  A    between atoms: _358  and  _360
REMARK  146  A    between atoms: _360  and  _361
REMARK  147  A    between atoms: _360  and  _363
REMARK  148  A    between atoms: _363  and  _364
REMARK  149  A    between atoms: _364  and  _365
REMARK  150  A    between atoms: _365  and  _366
REMARK  151  A    between atoms: _375  and  _377
REMARK  152  A    between atoms: _377  and  _378
REMARK  153  A    between atoms: _381  and  _383
REMARK  154  A    between atoms: _383  and  _384
REMARK  155  A    between atoms: _383  and  _386
REMARK  156  A    between atoms: _386  and  _387
REMARK  157  A    between atoms: _389  and  _391
REMARK  158  A    between atoms: _391  and  _392
REMARK  159  A    between atoms: _391  and  _394
REMARK  160  A    between atoms: _394  and  _395
REMARK  161  A    between atoms: _400  and  _402
REMARK  162  A    between atoms: _402  and  _403
REMARK  163  A    between atoms: _402  and  _405
REMARK  164  A    between atoms: _405  and  _406
REMARK  165  A    between atoms: _416  and  _418
REMARK  166  A    between atoms: _418  and  _419
REMARK  167  A    between atoms: _418  and  _421
REMARK  168  A    between atoms: _421  and  _422
REMARK  169  A    between atoms: _425  and  _427
REMARK  170  A    between atoms: _427  and  _428
REMARK  171  A    between atoms: _427  and  _430
REMARK  172  A    between atoms: _430  and  _431
REMARK  173  A    between atoms: _436  and  _437
REMARK  174  A    between atoms: _439  and  _441
REMARK  175  A    between atoms: _441  and  _442
REMARK  176  A    between atoms: _444  and  _446
REMARK  177  A    between atoms: _446  and  _447
REMARK  178  A    between atoms: _446  and  _449
REMARK  179  A    between atoms: _449  and  _450
REMARK  180  A    between atoms: _460  and  _462
REMARK  181  A    between atoms: _462  and  _463
REMARK  182  A    between atoms: _462  and  _465
REMARK  183  A    between atoms: _465  and  _466
REMARK  184  A    between atoms: _468  and  _470
REMARK  185  A    between atoms: _470  and  _471
REMARK  186  A    between atoms: _473  and  _475
REMARK  187  A    between atoms: _475  and  _476
REMARK  188  A    between atoms: _475  and  _478
REMARK  189  A    between atoms: _478  and  _479
REMARK  190  A    between atoms: _482  and  _484
REMARK  191  A    between atoms: _484  and  _485
REMARK  192  A    between atoms: _484  and  _487
REMARK  193  A    between atoms: _487  and  _488
REMARK  194  A    between atoms: _493  and  _495
REMARK  195  A    between atoms: _495  and  _496
REMARK  196  A    between atoms: _495  and  _498
REMARK  197  A    between atoms: _498  and  _499
REMARK  198  A    between atoms: _504  and  _506
REMARK  199  A    between atoms: _506  and  _507
REMARK  200  A    between atoms: _506  and  _509
REMARK  201  A    between atoms: _509  and  _510
REMARK  202  A    between atoms: _517  and  _518
REMARK  203  A    between atoms: _523  and  _525
REMARK  204  A    between atoms: _525  and  _526
REMARK  205  A    between atoms: _525  and  _528
REMARK  206  A    between atoms: _528  and  _529
REMARK  207  A    between atoms: _532  and  _534
REMARK  208  A    between atoms: _534  and  _535
REMARK  209  A    between atoms: _534  and  _537
REMARK  210  A    between atoms: _537  and  _538
REMARK  211  A    between atoms: _540  and  _542
REMARK  212  A    between atoms: _542  and  _543
REMARK  213  A    between atoms: _542  and  _545
REMARK  214  A    between atoms: _545  and  _546
REMARK  215  A    between atoms: _551  and  _552
REMARK  216  A    between atoms: _554  and  _556
REMARK  217  A    between atoms: _556  and  _557
REMARK  218  A    between atoms: _556  and  _559
REMARK  219  A    between atoms: _559  and  _560
REMARK  220  A    between atoms: _562  and  _564
REMARK  221  A    between atoms: _564  and  _565
REMARK  222  A    between atoms: _564  and  _567
REMARK  223  A    between atoms: _567  and  _568
REMARK  224  A    between atoms: _571  and  _573
REMARK  225  A    between atoms: _573  and  _574
REMARK  226  A    between atoms: _573  and  _576
REMARK  227  A    between atoms: _576  and  _577
REMARK  228  A    between atoms: _582  and  _584
REMARK  229  A    between atoms: _584  and  _585
REMARK  230  A    between atoms: _584  and  _587
REMARK  231  A    between atoms: _587  and  _588
REMARK  232  A    between atoms: _594  and  _596
REMARK  233  A    between atoms: _596  and  _597
REMARK  234  A    between atoms: _601  and  _602
REMARK  235  A    between atoms: _607  and  _609
REMARK  236  A    between atoms: _609  and  _610
REMARK  237  A    between atoms: _609  and  _612
REMARK  238  A    between atoms: _612  and  _613
REMARK  239  A    between atoms: _618  and  _619
REMARK  240  A    between atoms: _621  and  _623
REMARK  241  A    between atoms: _623  and  _624
REMARK  242  A    between atoms: _623  and  _626
REMARK  243  A    between atoms: _626  and  _627
REMARK  244  A    between atoms: _627  and  _628
REMARK  245  A    between atoms: _628  and  _629
REMARK  246  A    between atoms: _629  and  _630
REMARK  247  A    between atoms: _634  and  _636
REMARK  248  A    between atoms: _636  and  _637
REMARK  249  A    between atoms: _636  and  _639
REMARK  250  A    between atoms: _639  and  _640
REMARK  251  A    between atoms: _640  and  _641
REMARK  252  A    between atoms: _646  and  _648
REMARK  253  A    between atoms: _648  and  _649
REMARK  254  A    between atoms: _648  and  _651
REMARK  255  A    between atoms: _651  and  _652
REMARK  256  A    between atoms: _655  and  _656
REMARK  257  A    between atoms: _661  and  _663
REMARK  258  A    between atoms: _663  and  _664
REMARK  259  A    between atoms: _663  and  _666
REMARK  260  A    between atoms: _666  and  _667
REMARK  261  A    between atoms: _673  and  _675
REMARK  262  A    between atoms: _675  and  _676
REMARK  263  A    between atoms: _678  and  _680
REMARK  264  A    between atoms: _680  and  _681
REMARK  265  A    between atoms: _680  and  _683
REMARK  266  A    between atoms: _683  and  _684
REMARK  267  A    between atoms: _689  and  _690
REMARK  268  A    between atoms: _692  and  _694
REMARK  269  A    between atoms: _694  and  _695
REMARK  270  A    between atoms: _694  and  _697
REMARK  271  A    between atoms: _697  and  _698
REMARK  272  A    between atoms: _701  and  _703
REMARK  273  A    between atoms: _703  and  _704
REMARK  274  A    between atoms: _703  and  _706
REMARK  275  A    between atoms: _706  and  _707
REMARK  276  A    between atoms: _712  and  _713
REMARK                            x       y       z     vdW  Elec       q    Type
REMARK                         _______ _______ _______ _____ _____    ______ ____
ROOT
ATOM      1  O   HOH     1      27.923 -16.676 -11.724  0.00  0.00    +0.000 OA
ENDROOT
TORSDOF 0
REMARK  Name = ../refined-set-2016/3m8u/3m8u_pocket.pdb
REMARK  276 active torsions:
REMARK  status: ('A' for Active; 'I' for Inactive)
REMARK    1  A    between atoms: _1  and  _3
REMARK    2  A    between atoms: _3  and  _4
REMARK    3  A    between atoms: _3  and  _6
REMARK    4  A    between atoms: _6  and  _7
REMARK    5  A    between atoms: _12  and  _14
REMARK    6  A    between atoms: _14  and  _15
REMARK    7  A    between atoms: _14  and  _17
REMARK    8  A    between atoms: _20  and  _22
REMARK    9  A    between atoms: _22  and  _23
REMARK   10  A    between atoms: _22  and  _25
REMARK   11  A    between atoms: _25  and  _26
REMARK   12  A    between atoms: _28  and  _30
REMARK   13  A    between atoms: _30  and  _31
REMARK   14  A    between atoms: _30  and  _33
REMARK   15  A    between atoms: _33  and  _34
REMARK   16  A    between atoms: _34  and  _35
REMARK   17  A    between atoms: _35  and  _36
REMARK   18  A    between atoms: _45  and  _47
REMARK   19  A    between atoms: _47  and  _48
REMARK   20  A    between atoms: _47  and  _50
REMARK   21  A    between atoms: _50  and  _51
REMARK   22  A    between atoms: _54  and  _56
REMARK   23  A    between atoms: _56  and  _57
REMARK   24  A    between atoms: _56  and  _59
REMARK   25  A    between atoms: _62  and  _64
REMARK   26  A    between atoms: _64  and  _65
REMARK   27  A    between atoms: _64  and  _67
REMARK   28  A    between atoms: _67  and  _68
REMARK   29  A    between atoms: _68  and  _69
REMARK   30  A    between atoms: _71  and  _73
REMARK   31  A    between atoms: _73  and  _74
REMARK   32  A    between atoms: _73  and  _76
REMARK   33  A    between atoms: _76  and  _77
REMARK   34  A    between atoms: _80  and  _82
REMARK   35  A    between atoms: _82  and  _83
REMARK   36  A    between atoms: _85  and  _87
REMARK   37  A    between atoms: _87  and  _88
REMARK   38  A    between atoms: _87  and  _90
REMARK   39  A    between atoms: _90  and  _91
REMARK   40  A    between atoms: _94  and  _96
REMARK   41  A    between atoms: _96  and  _97
REMARK   42  A    between atoms: _96  and  _99
REMARK   43  A    between atoms: _99  and  _100
REMARK   44  A    between atoms: _102  and  _104
REMARK   45  A    between atoms: _104  and  _105
REMARK   46  A    between atoms: _104  and  _107
REMARK   47  A    between atoms: _107  and  _108
REMARK   48  A    between atoms: _113  and  _114
REMARK   49  A    between atoms: _116  and  _118
REMARK   50  A    between atoms: _118  and  _119
REMARK   51  A    between atoms: _118  and  _121
REMARK   52  A    between atoms: _121  and  _122
REMARK   53  A    between atoms: _127  and  _129
REMARK   54  A    between atoms: _129  and  _130
REMARK   55  A    between atoms: _133  and  _135
REMARK   56  A    between atoms: _135  and  _136
REMARK   57  A    between atoms: _135  and  _138
REMARK   58  A    between atoms: _138  and  _139
REMARK   59  A    between atoms: _139  and  _140
REMARK   60  A    between atoms: _145  and  _147
REMARK   61  A    between atoms: _147  and  _148
REMARK   62  A    between atoms: _147  and  _150
REMARK   63  A    between atoms: _150  and  _151
REMARK   64  A    between atoms: _156  and  _157
REMARK   65  A    between atoms: _159  and  _161
REMARK   66  A    between atoms: _161  and  _162
REMARK   67  A    between atoms: _161  and  _164
REMARK   68  A    between atoms: _164  and  _165
REMARK   69  A    between atoms: _165  and  _166
REMARK   70  A    between atoms: _168  and  _170
REMARK   71  A    between atoms: _170  and  _171
REMARK   72  A    between atoms: _170  and  _173
REMARK   73  A    between atoms: _173  and  _174
REMARK   74  A    between atoms: _177  and  _179
REMARK   75  A    between atoms: _179  and  _180
REMARK   76  A    between atoms: _179  and  _182
REMARK   77  A    between atoms: _182  and  _183
REMARK   78  A    between atoms: _186  and  _188
REMARK   79  A    between atoms: _188  and  _189
REMARK   80  A    between atoms: _188  and  _191
REMARK   81  A    between atoms: _191  and  _192
REMARK   82  A    between atoms: _195  and  _197
REMARK   83  A    between atoms: _197  and  _198
REMARK   84  A    between atoms: _197  and  _200
REMARK   85  A    between atoms: _200  and  _201
REMARK   86  A    between atoms: _204  and  _206
REMARK   87  A    between atoms: _206  and  _207
REMARK   88  A    between atoms: _206  and  _209
REMARK   89  A    between atoms: _209  and  _210
REMARK   90  A    between atoms: _217  and  _218
REMARK   91  A    between atoms: _223  and  _225
REMARK   92  A    between atoms: _225  and  _226
REMARK   93  A    between atoms: _225  and  _228
REMARK   94  A    between atoms: _228  and  _229
REMARK   95  A    between atoms: _234  and  _236
REMARK   96  A    between atoms: _236  and  _237
REMARK   97  A    between atoms: _236  and  _239
REMARK   98  A    between atoms: _239  and  _240
REMARK   99  A    between atoms: _242  and  _244
REMARK  100  A    between atoms: _244  and  _245
REMARK  101  A    between atoms: _244  and  _247
REMARK  102  A    between atoms: _247  and  _248
REMARK  103  A    between atoms: _248  and  _249
REMARK  104  A    between atoms: _254  and  _256
REMARK  105  A    between atoms: _256  and  _257
REMARK  106  A    between atoms: _256  and  _259
REMARK  107  A    between atoms: _259  and  _260
REMARK  108  A    between atoms: _262  and  _264
REMARK  109  A    between atoms: _264  and  _265
REMARK  110  A    between atoms: _267  and  _269
REMARK  111  A    between atoms: _269  and  _270
REMARK  112  A    between atoms: _269  and  _272
REMARK  113  A    between atoms: _272  and  _273
REMARK  114  A    between atoms: _276  and  _278
REMARK  115  A    between atoms: _278  and  _279
REMARK  116  A    between atoms: _278  and  _281
REMARK  117  A    between atoms: _281  and  _282
REMARK  118  A    between atoms: _287  and  _289
REMARK  119  A    between atoms: _289  and  _290
REMARK  120  A    between atoms: _289  and  _292
REMARK  121  A    between atoms: _292  and  _293
REMARK  122  A    between atoms: _296  and  _298
REMARK  123  A    between atoms: _298  and  _299
REMARK  124  A    between atoms: _302  and  _304
REMARK  125  A    between atoms: _304  and  _305
REMARK  126  A    between atoms: _304  and  _307
REMARK  127  A    between atoms: _307  and  _308
REMARK  128  A    between atoms: _313  and  _314
REMARK  129  A    between atoms: _316  and  _318
REMARK  130  A    between atoms: _318  and  _319
REMARK  131  A    between atoms: _318  and  _321
REMARK  132  A    between atoms: _321  and  _322
REMARK  133  A    between atoms: _327  and  _328
REMARK  134  A    between atoms: _330  and  _332
REMARK  135  A    between atoms: _332  and  _333
REMARK  136  A    between atoms: _332  and  _335
REMARK  137  A    between atoms: _335  and  _336
REMARK  138  A    between atoms: _336  and  _337
REMARK  139  A    between atoms: _342  and  _344
REMARK  140  A    between atoms: _344  and  _345
REMARK  141  A    between atoms: _344  and  _347
REMARK  142  A    between atoms: _350  and  _352
REMARK  143  A    between atoms: _352  and  _353
REMARK  144  A    between atoms: _352  and  _355
REMARK  145  A    between atoms: _358  and  _360
REMARK  146  A    between atoms: _360  and  _361
REMARK  147  A    between atoms: _360  and  _363
REMARK  148  A    between atoms: _363  and  _364
REMARK  149  A    between atoms: _364  and  _365
REMARK  150  A    between atoms: _365  and  _366
REMARK  151  A    between atoms: _375  and  _377
REMARK  152  A    between atoms: _377  and  _378
REMARK  153  A    between atoms: _381  and  _383
REMARK  154  A    between atoms: _383  and  _384
REMARK  155  A    between atoms: _383  and  _386
REMARK  156  A    between atoms: _386  and  _387
REMARK  157  A    between atoms: _389  and  _391
REMARK  158  A    between atoms: _391  and  _392
REMARK  159  A    between atoms: _391  and  _394
REMARK  160  A    between atoms: _394  and  _395
REMARK  161  A    between atoms: _400  and  _402
REMARK  162  A    between atoms: _402  and  _403
REMARK  163  A    between atoms: _402  and  _405
REMARK  164  A    between atoms: _405  and  _406
REMARK  165  A    between atoms: _416  and  _418
REMARK  166  A    between atoms: _418  and  _419
REMARK  167  A    between atoms: _418  and  _421
REMARK  168  A    between atoms: _421  and  _422
REMARK  169  A    between atoms: _425  and  _427
REMARK  170  A    between atoms: _427  and  _428
REMARK  171  A    between atoms: _427  and  _430
REMARK  172  A    between atoms: _430  and  _431
REMARK  173  A    between atoms: _436  and  _437
REMARK  174  A    between atoms: _439  and  _441
REMARK  175  A    between atoms: _441  and  _442
REMARK  176  A    between atoms: _444  and  _446
REMARK  177  A    between atoms: _446  and  _447
REMARK  178  A    between atoms: _446  and  _449
REMARK  179  A    between atoms: _449  and  _450
REMARK  180  A    between atoms: _460  and  _462
REMARK  181  A    between atoms: _462  and  _463
REMARK  182  A    between atoms: _462  and  _465
REMARK  183  A    between atoms: _465  and  _466
REMARK  184  A    between atoms: _468  and  _470
REMARK  185  A    between atoms: _470  and  _471
REMARK  186  A    between atoms: _473  and  _475
REMARK  187  A    between atoms: _475  and  _476
REMARK  188  A    between atoms: _475  and  _478
REMARK  189  A    between atoms: _478  and  _479
REMARK  190  A    between atoms: _482  and  _484
REMARK  191  A    between atoms: _484  and  _485
REMARK  192  A    between atoms: _484  and  _487
REMARK  193  A    between atoms: _487  and  _488
REMARK  194  A    between atoms: _493  and  _495
REMARK  195  A    between atoms: _495  and  _496
REMARK  196  A    between atoms: _495  and  _498
REMARK  197  A    between atoms: _498  and  _499
REMARK  198  A    between atoms: _504  and  _506
REMARK  199  A    between atoms: _506  and  _507
REMARK  200  A    between atoms: _506  and  _509
REMARK  201  A    between atoms: _509  and  _510
REMARK  202  A    between atoms: _517  and  _518
REMARK  203  A    between atoms: _523  and  _525
REMARK  204  A    between atoms: _525  and  _526
REMARK  205  A    between atoms: _525  and  _528
REMARK  206  A    between atoms: _528  and  _529
REMARK  207  A    between atoms: _532  and  _534
REMARK  208  A    between atoms: _534  and  _535
REMARK  209  A    between atoms: _534  and  _537
REMARK  210  A    between atoms: _537  and  _538
REMARK  211  A    between atoms: _540  and  _542
REMARK  212  A    between atoms: _542  and  _543
REMARK  213  A    between atoms: _542  and  _545
REMARK  214  A    between atoms: _545  and  _546
REMARK  215  A    between atoms: _551  and  _552
REMARK  216  A    between atoms: _554  and  _556
REMARK  217  A    between atoms: _556  and  _557
REMARK  218  A    between atoms: _556  and  _559
REMARK  219  A    between atoms: _559  and  _560
REMARK  220  A    between atoms: _562  and  _564
REMARK  221  A    between atoms: _564  and  _565
REMARK  222  A    between atoms: _564  and  _567
REMARK  223  A    between atoms: _567  and  _568
REMARK  224  A    between atoms: _571  and  _573
REMARK  225  A    between atoms: _573  and  _574
REMARK  226  A    between atoms: _573  and  _576
REMARK  227  A    between atoms: _576  and  _577
REMARK  228  A    between atoms: _582  and  _584
REMARK  229  A    between atoms: _584  and  _585
REMARK  230  A    between atoms: _584  and  _587
REMARK  231  A    between atoms: _587  and  _588
REMARK  232  A    between atoms: _594  and  _596
REMARK  233  A    between atoms: _596  and  _597
REMARK  234  A    between atoms: _601  and  _602
REMARK  235  A    between atoms: _607  and  _609
REMARK  236  A    between atoms: _609  and  _610
REMARK  237  A    between atoms: _609  and  _612
REMARK  238  A    between atoms: _612  and  _613
REMARK  239  A    between atoms: _618  and  _619
REMARK  240  A    between atoms: _621  and  _623
REMARK  241  A    between atoms: _623  and  _624
REMARK  242  A    between atoms: _623  and  _626
REMARK  243  A    between atoms: _626  and  _627
REMARK  244  A    between atoms: _627  and  _628
REMARK  245  A    between atoms: _628  and  _629
REMARK  246  A    between atoms: _629  and  _630
REMARK  247  A    between atoms: _634  and  _636
REMARK  248  A    between atoms: _636  and  _637
REMARK  249  A    between atoms: _636  and  _639
REMARK  250  A    between atoms: _639  and  _640
REMARK  251  A    between atoms: _640  and  _641
REMARK  252  A    between atoms: _646  and  _648
REMARK  253  A    between atoms: _648  and  _649
REMARK  254  A    between atoms: _648  and  _651
REMARK  255  A    between atoms: _651  and  _652
REMARK  256  A    between atoms: _655  and  _656
REMARK  257  A    between atoms: _661  and  _663
REMARK  258  A    between atoms: _663  and  _664
REMARK  259  A    between atoms: _663  and  _666
REMARK  260  A    between atoms: _666  and  _667
REMARK  261  A    between atoms: _673  and  _675
REMARK  262  A    between atoms: _675  and  _676
REMARK  263  A    between atoms: _678  and  _680
REMARK  264  A    between atoms: _680  and  _681
REMARK  265  A    between atoms: _680  and  _683
REMARK  266  A    between atoms: _683  and  _684
REMARK  267  A    between atoms: _689  and  _690
REMARK  268  A    between atoms: _692  and  _694
REMARK  269  A    between atoms: _694  and  _695
REMARK  270  A    between atoms: _694  and  _697
REMARK  271  A    between atoms: _697  and  _698
REMARK  272  A    between atoms: _701  and  _703
REMARK  273  A    between atoms: _703  and  _704
REMARK  274  A    between atoms: _703  and  _706
REMARK  275  A    between atoms: _706  and  _707
REMARK  276  A    between atoms: _712  and  _713
REMARK                            x       y       z     vdW  Elec       q    Type
REMARK                         _______ _______ _______ _____ _____    ______ ____
ROOT
ATOM      1  O   HOH     1       3.153 -12.515 -16.831  0.00  0.00    +0.000 OA
ENDROOT
TORSDOF 0
REMARK  Name = ../refined-set-2016/3m8u/3m8u_pocket.pdb
REMARK  276 active torsions:
REMARK  status: ('A' for Active; 'I' for Inactive)
REMARK    1  A    between atoms: _1  and  _3
REMARK    2  A    between atoms: _3  and  _4
REMARK    3  A    between atoms: _3  and  _6
REMARK    4  A    between atoms: _6  and  _7
REMARK    5  A    between atoms: _12  and  _14
REMARK    6  A    between atoms: _14  and  _15
REMARK    7  A    between atoms: _14  and  _17
REMARK    8  A    between atoms: _20  and  _22
REMARK    9  A    between atoms: _22  and  _23
REMARK   10  A    between atoms: _22  and  _25
REMARK   11  A    between atoms: _25  and  _26
REMARK   12  A    between atoms: _28  and  _30
REMARK   13  A    between atoms: _30  and  _31
REMARK   14  A    between atoms: _30  and  _33
REMARK   15  A    between atoms: _33  and  _34
REMARK   16  A    between atoms: _34  and  _35
REMARK   17  A    between atoms: _35  and  _36
REMARK   18  A    between atoms: _45  and  _47
REMARK   19  A    between atoms: _47  and  _48
REMARK   20  A    between atoms: _47  and  _50
REMARK   21  A    between atoms: _50  and  _51
REMARK   22  A    between atoms: _54  and  _56
REMARK   23  A    between atoms: _56  and  _57
REMARK   24  A    between atoms: _56  and  _59
REMARK   25  A    between atoms: _62  and  _64
REMARK   26  A    between atoms: _64  and  _65
REMARK   27  A    between atoms: _64  and  _67
REMARK   28  A    between atoms: _67  and  _68
REMARK   29  A    between atoms: _68  and  _69
REMARK   30  A    between atoms: _71  and  _73
REMARK   31  A    between atoms: _73  and  _74
REMARK   32  A    between atoms: _73  and  _76
REMARK   33  A    between atoms: _76  and  _77
REMARK   34  A    between atoms: _80  and  _82
REMARK   35  A    between atoms: _82  and  _83
REMARK   36  A    between atoms: _85  and  _87
REMARK   37  A    between atoms: _87  and  _88
REMARK   38  A    between atoms: _87  and  _90
REMARK   39  A    between atoms: _90  and  _91
REMARK   40  A    between atoms: _94  and  _96
REMARK   41  A    between atoms: _96  and  _97
REMARK   42  A    between atoms: _96  and  _99
REMARK   43  A    between atoms: _99  and  _100
REMARK   44  A    between atoms: _102  and  _104
REMARK   45  A    between atoms: _104  and  _105
REMARK   46  A    between atoms: _104  and  _107
REMARK   47  A    between atoms: _107  and  _108
REMARK   48  A    between atoms: _113  and  _114
REMARK   49  A    between atoms: _116  and  _118
REMARK   50  A    between atoms: _118  and  _119
REMARK   51  A    between atoms: _118  and  _121
REMARK   52  A    between atoms: _121  and  _122
REMARK   53  A    between atoms: _127  and  _129
REMARK   54  A    between atoms: _129  and  _130
REMARK   55  A    between atoms: _133  and  _135
REMARK   56  A    between atoms: _135  and  _136
REMARK   57  A    between atoms: _135  and  _138
REMARK   58  A    between atoms: _138  and  _139
REMARK   59  A    between atoms: _139  and  _140
REMARK   60  A    between atoms: _145  and  _147
REMARK   61  A    between atoms: _147  and  _148
REMARK   62  A    between atoms: _147  and  _150
REMARK   63  A    between atoms: _150  and  _151
REMARK   64  A    between atoms: _156  and  _157
REMARK   65  A    between atoms: _159  and  _161
REMARK   66  A    between atoms: _161  and  _162
REMARK   67  A    between atoms: _161  and  _164
REMARK   68  A    between atoms: _164  and  _165
REMARK   69  A    between atoms: _165  and  _166
REMARK   70  A    between atoms: _168  and  _170
REMARK   71  A    between atoms: _170  and  _171
REMARK   72  A    between atoms: _170  and  _173
REMARK   73  A    between atoms: _173  and  _174
REMARK   74  A    between atoms: _177  and  _179
REMARK   75  A    between atoms: _179  and  _180
REMARK   76  A    between atoms: _179  and  _182
REMARK   77  A    between atoms: _182  and  _183
REMARK   78  A    between atoms: _186  and  _188
REMARK   79  A    between atoms: _188  and  _189
REMARK   80  A    between atoms: _188  and  _191
REMARK   81  A    between atoms: _191  and  _192
REMARK   82  A    between atoms: _195  and  _197
REMARK   83  A    between atoms: _197  and  _198
REMARK   84  A    between atoms: _197  and  _200
REMARK   85  A    between atoms: _200  and  _201
REMARK   86  A    between atoms: _204  and  _206
REMARK   87  A    between atoms: _206  and  _207
REMARK   88  A    between atoms: _206  and  _209
REMARK   89  A    between atoms: _209  and  _210
REMARK   90  A    between atoms: _217  and  _218
REMARK   91  A    between atoms: _223  and  _225
REMARK   92  A    between atoms: _225  and  _226
REMARK   93  A    between atoms: _225  and  _228
REMARK   94  A    between atoms: _228  and  _229
REMARK   95  A    between atoms: _234  and  _236
REMARK   96  A    between atoms: _236  and  _237
REMARK   97  A    between atoms: _236  and  _239
REMARK   98  A    between atoms: _239  and  _240
REMARK   99  A    between atoms: _242  and  _244
REMARK  100  A    between atoms: _244  and  _245
REMARK  101  A    between atoms: _244  and  _247
REMARK  102  A    between atoms: _247  and  _248
REMARK  103  A    between atoms: _248  and  _249
REMARK  104  A    between atoms: _254  and  _256
REMARK  105  A    between atoms: _256  and  _257
REMARK  106  A    between atoms: _256  and  _259
REMARK  107  A    between atoms: _259  and  _260
REMARK  108  A    between atoms: _262  and  _264
REMARK  109  A    between atoms: _264  and  _265
REMARK  110  A    between atoms: _267  and  _269
REMARK  111  A    between atoms: _269  and  _270
REMARK  112  A    between atoms: _269  and  _272
REMARK  113  A    between atoms: _272  and  _273
REMARK  114  A    between atoms: _276  and  _278
REMARK  115  A    between atoms: _278  and  _279
REMARK  116  A    between atoms: _278  and  _281
REMARK  117  A    between atoms: _281  and  _282
REMARK  118  A    between atoms: _287  and  _289
REMARK  119  A    between atoms: _289  and  _290
REMARK  120  A    between atoms: _289  and  _292
REMARK  121  A    between atoms: _292  and  _293
REMARK  122  A    between atoms: _296  and  _298
REMARK  123  A    between atoms: _298  and  _299
REMARK  124  A    between atoms: _302  and  _304
REMARK  125  A    between atoms: _304  and  _305
REMARK  126  A    between atoms: _304  and  _307
REMARK  127  A    between atoms: _307  and  _308
REMARK  128  A    between atoms: _313  and  _314
REMARK  129  A    between atoms: _316  and  _318
REMARK  130  A    between atoms: _318  and  _319
REMARK  131  A    between atoms: _318  and  _321
REMARK  132  A    between atoms: _321  and  _322
REMARK  133  A    between atoms: _327  and  _328
REMARK  134  A    between atoms: _330  and  _332
REMARK  135  A    between atoms: _332  and  _333
REMARK  136  A    between atoms: _332  and  _335
REMARK  137  A    between atoms: _335  and  _336
REMARK  138  A    between atoms: _336  and  _337
REMARK  139  A    between atoms: _342  and  _344
REMARK  140  A    between atoms: _344  and  _345
REMARK  141  A    between atoms: _344  and  _347
REMARK  142  A    between atoms: _350  and  _352
REMARK  143  A    between atoms: _352  and  _353
REMARK  144  A    between atoms: _352  and  _355
REMARK  145  A    between atoms: _358  and  _360
REMARK  146  A    between atoms: _360  and  _361
REMARK  147  A    between atoms: _360  and  _363
REMARK  148  A    between atoms: _363  and  _364
REMARK  149  A    between atoms: _364  and  _365
REMARK  150  A    between atoms: _365  and  _366
REMARK  151  A    between atoms: _375  and  _377
REMARK  152  A    between atoms: _377  and  _378
REMARK  153  A    between atoms: _381  and  _383
REMARK  154  A    between atoms: _383  and  _384
REMARK  155  A    between atoms: _383  and  _386
REMARK  156  A    between atoms: _386  and  _387
REMARK  157  A    between atoms: _389  and  _391
REMARK  158  A    between atoms: _391  and  _392
REMARK  159  A    between atoms: _391  and  _394
REMARK  160  A    between atoms: _394  and  _395
REMARK  161  A    between atoms: _400  and  _402
REMARK  162  A    between atoms: _402  and  _403
REMARK  163  A    between atoms: _402  and  _405
REMARK  164  A    between atoms: _405  and  _406
REMARK  165  A    between atoms: _416  and  _418
REMARK  166  A    between atoms: _418  and  _419
REMARK  167  A    between atoms: _418  and  _421
REMARK  168  A    between atoms: _421  and  _422
REMARK  169  A    between atoms: _425  and  _427
REMARK  170  A    between atoms: _427  and  _428
REMARK  171  A    between atoms: _427  and  _430
REMARK  172  A    between atoms: _430  and  _431
REMARK  173  A    between atoms: _436  and  _437
REMARK  174  A    between atoms: _439  and  _441
REMARK  175  A    between atoms: _441  and  _442
REMARK  176  A    between atoms: _444  and  _446
REMARK  177  A    between atoms: _446  and  _447
REMARK  178  A    between atoms: _446  and  _449
REMARK  179  A    between atoms: _449  and  _450
REMARK  180  A    between atoms: _460  and  _462
REMARK  181  A    between atoms: _462  and  _463
REMARK  182  A    between atoms: _462  and  _465
REMARK  183  A    between atoms: _465  and  _466
REMARK  184  A    between atoms: _468  and  _470
REMARK  185  A    between atoms: _470  and  _471
REMARK  186  A    between atoms: _473  and  _475
REMARK  187  A    between atoms: _475  and  _476
REMARK  188  A    between atoms: _475  and  _478
REMARK  189  A    between atoms: _478  and  _479
REMARK  190  A    between atoms: _482  and  _484
REMARK  191  A    between atoms: _484  and  _485
REMARK  192  A    between atoms: _484  and  _487
REMARK  193  A    between atoms: _487  and  _488
REMARK  194  A    between atoms: _493  and  _495
REMARK  195  A    between atoms: _495  and  _496
REMARK  196  A    between atoms: _495  and  _498
REMARK  197  A    between atoms: _498  and  _499
REMARK  198  A    between atoms: _504  and  _506
REMARK  199  A    between atoms: _506  and  _507
REMARK  200  A    between atoms: _506  and  _509
REMARK  201  A    between atoms: _509  and  _510
REMARK  202  A    between atoms: _517  and  _518
REMARK  203  A    between atoms: _523  and  _525
REMARK  204  A    between atoms: _525  and  _526
REMARK  205  A    between atoms: _525  and  _528
REMARK  206  A    between atoms: _528  and  _529
REMARK  207  A    between atoms: _532  and  _534
REMARK  208  A    between atoms: _534  and  _535
REMARK  209  A    between atoms: _534  and  _537
REMARK  210  A    between atoms: _537  and  _538
REMARK  211  A    between atoms: _540  and  _542
REMARK  212  A    between atoms: _542  and  _543
REMARK  213  A    between atoms: _542  and  _545
REMARK  214  A    between atoms: _545  and  _546
REMARK  215  A    between atoms: _551  and  _552
REMARK  216  A    between atoms: _554  and  _556
REMARK  217  A    between atoms: _556  and  _557
REMARK  218  A    between atoms: _556  and  _559
REMARK  219  A    between atoms: _559  and  _560
REMARK  220  A    between atoms: _562  and  _564
REMARK  221  A    between atoms: _564  and  _565
REMARK  222  A    between atoms: _564  and  _567
REMARK  223  A    between atoms: _567  and  _568
REMARK  224  A    between atoms: _571  and  _573
REMARK  225  A    between atoms: _573  and  _574
REMARK  226  A    between atoms: _573  and  _576
REMARK  227  A    between atoms: _576  and  _577
REMARK  228  A    between atoms: _582  and  _584
REMARK  229  A    between atoms: _584  and  _585
REMARK  230  A    between atoms: _584  and  _587
REMARK  231  A    between atoms: _587  and  _588
REMARK  232  A    between atoms: _594  and  _596
REMARK  233  A    between atoms: _596  and  _597
REMARK  234  A    between atoms: _601  and  _602
REMARK  235  A    between atoms: _607  and  _609
REMARK  236  A    between atoms: _609  and  _610
REMARK  237  A    between atoms: _609  and  _612
REMARK  238  A    between atoms: _612  and  _613
REMARK  239  A    between atoms: _618  and  _619
REMARK  240  A    between atoms: _621  and  _623
REMARK  241  A    between atoms: _623  and  _624
REMARK  242  A    between atoms: _623  and  _626
REMARK  243  A    between atoms: _626  and  _627
REMARK  244  A    between atoms: _627  and  _628
REMARK  245  A    between atoms: _628  and  _629
REMARK  246  A    between atoms: _629  and  _630
REMARK  247  A    between atoms: _634  and  _636
REMARK  248  A    between atoms: _636  and  _637
REMARK  249  A    between atoms: _636  and  _639
REMARK  250  A    between atoms: _639  and  _640
REMARK  251  A    between atoms: _640  and  _641
REMARK  252  A    between atoms: _646  and  _648
REMARK  253  A    between atoms: _648  and  _649
REMARK  254  A    between atoms: _648  and  _651
REMARK  255  A    between atoms: _651  and  _652
REMARK  256  A    between atoms: _655  and  _656
REMARK  257  A    between atoms: _661  and  _663
REMARK  258  A    between atoms: _663  and  _664
REMARK  259  A    between atoms: _663  and  _666
REMARK  260  A    between atoms: _666  and  _667
REMARK  261  A    between atoms: _673  and  _675
REMARK  262  A    between atoms: _675  and  _676
REMARK  263  A    between atoms: _678  and  _680
REMARK  264  A    between atoms: _680  and  _681
REMARK  265  A    between atoms: _680  and  _683
REMARK  266  A    between atoms: _683  and  _684
REMARK  267  A    between atoms: _689  and  _690
REMARK  268  A    between atoms: _692  and  _694
REMARK  269  A    between atoms: _694  and  _695
REMARK  270  A    between atoms: _694  and  _697
REMARK  271  A    between atoms: _697  and  _698
REMARK  272  A    between atoms: _701  and  _703
REMARK  273  A    between atoms: _703  and  _704
REMARK  274  A    between atoms: _703  and  _706
REMARK  275  A    between atoms: _706  and  _707
REMARK  276  A    between atoms: _712  and  _713
REMARK                            x       y       z     vdW  Elec       q    Type
REMARK                         _______ _______ _______ _____ _____    ______ ____
ROOT
ATOM      1  O   HOH     1      16.765  -8.004 -15.177  0.00  0.00    +0.000 OA
ENDROOT
TORSDOF 0
REMARK  Name = ../refined-set-2016/3m8u/3m8u_pocket.pdb
REMARK  276 active torsions:
REMARK  status: ('A' for Active; 'I' for Inactive)
REMARK    1  A    between atoms: _1  and  _3
REMARK    2  A    between atoms: _3  and  _4
REMARK    3  A    between atoms: _3  and  _6
REMARK    4  A    between atoms: _6  and  _7
REMARK    5  A    between atoms: _12  and  _14
REMARK    6  A    between atoms: _14  and  _15
REMARK    7  A    between atoms: _14  and  _17
REMARK    8  A    between atoms: _20  and  _22
REMARK    9  A    between atoms: _22  and  _23
REMARK   10  A    between atoms: _22  and  _25
REMARK   11  A    between atoms: _25  and  _26
REMARK   12  A    between atoms: _28  and  _30
REMARK   13  A    between atoms: _30  and  _31
REMARK   14  A    between atoms: _30  and  _33
REMARK   15  A    between atoms: _33  and  _34
REMARK   16  A    between atoms: _34  and  _35
REMARK   17  A    between atoms: _35  and  _36
REMARK   18  A    between atoms: _45  and  _47
REMARK   19  A    between atoms: _47  and  _48
REMARK   20  A    between atoms: _47  and  _50
REMARK   21  A    between atoms: _50  and  _51
REMARK   22  A    between atoms: _54  and  _56
REMARK   23  A    between atoms: _56  and  _57
REMARK   24  A    between atoms: _56  and  _59
REMARK   25  A    between atoms: _62  and  _64
REMARK   26  A    between atoms: _64  and  _65
REMARK   27  A    between atoms: _64  and  _67
REMARK   28  A    between atoms: _67  and  _68
REMARK   29  A    between atoms: _68  and  _69
REMARK   30  A    between atoms: _71  and  _73
REMARK   31  A    between atoms: _73  and  _74
REMARK   32  A    between atoms: _73  and  _76
REMARK   33  A    between atoms: _76  and  _77
REMARK   34  A    between atoms: _80  and  _82
REMARK   35  A    between atoms: _82  and  _83
REMARK   36  A    between atoms: _85  and  _87
REMARK   37  A    between atoms: _87  and  _88
REMARK   38  A    between atoms: _87  and  _90
REMARK   39  A    between atoms: _90  and  _91
REMARK   40  A    between atoms: _94  and  _96
REMARK   41  A    between atoms: _96  and  _97
REMARK   42  A    between atoms: _96  and  _99
REMARK   43  A    between atoms: _99  and  _100
REMARK   44  A    between atoms: _102  and  _104
REMARK   45  A    between atoms: _104  and  _105
REMARK   46  A    between atoms: _104  and  _107
REMARK   47  A    between atoms: _107  and  _108
REMARK   48  A    between atoms: _113  and  _114
REMARK   49  A    between atoms: _116  and  _118
REMARK   50  A    between atoms: _118  and  _119
REMARK   51  A    between atoms: _118  and  _121
REMARK   52  A    between atoms: _121  and  _122
REMARK   53  A    between atoms: _127  and  _129
REMARK   54  A    between atoms: _129  and  _130
REMARK   55  A    between atoms: _133  and  _135
REMARK   56  A    between atoms: _135  and  _136
REMARK   57  A    between atoms: _135  and  _138
REMARK   58  A    between atoms: _138  and  _139
REMARK   59  A    between atoms: _139  and  _140
REMARK   60  A    between atoms: _145  and  _147
REMARK   61  A    between atoms: _147  and  _148
REMARK   62  A    between atoms: _147  and  _150
REMARK   63  A    between atoms: _150  and  _151
REMARK   64  A    between atoms: _156  and  _157
REMARK   65  A    between atoms: _159  and  _161
REMARK   66  A    between atoms: _161  and  _162
REMARK   67  A    between atoms: _161  and  _164
REMARK   68  A    between atoms: _164  and  _165
REMARK   69  A    between atoms: _165  and  _166
REMARK   70  A    between atoms: _168  and  _170
REMARK   71  A    between atoms: _170  and  _171
REMARK   72  A    between atoms: _170  and  _173
REMARK   73  A    between atoms: _173  and  _174
REMARK   74  A    between atoms: _177  and  _179
REMARK   75  A    between atoms: _179  and  _180
REMARK   76  A    between atoms: _179  and  _182
REMARK   77  A    between atoms: _182  and  _183
REMARK   78  A    between atoms: _186  and  _188
REMARK   79  A    between atoms: _188  and  _189
REMARK   80  A    between atoms: _188  and  _191
REMARK   81  A    between atoms: _191  and  _192
REMARK   82  A    between atoms: _195  and  _197
REMARK   83  A    between atoms: _197  and  _198
REMARK   84  A    between atoms: _197  and  _200
REMARK   85  A    between atoms: _200  and  _201
REMARK   86  A    between atoms: _204  and  _206
REMARK   87  A    between atoms: _206  and  _207
REMARK   88  A    between atoms: _206  and  _209
REMARK   89  A    between atoms: _209  and  _210
REMARK   90  A    between atoms: _217  and  _218
REMARK   91  A    between atoms: _223  and  _225
REMARK   92  A    between atoms: _225  and  _226
REMARK   93  A    between atoms: _225  and  _228
REMARK   94  A    between atoms: _228  and  _229
REMARK   95  A    between atoms: _234  and  _236
REMARK   96  A    between atoms: _236  and  _237
REMARK   97  A    between atoms: _236  and  _239
REMARK   98  A    between atoms: _239  and  _240
REMARK   99  A    between atoms: _242  and  _244
REMARK  100  A    between atoms: _244  and  _245
REMARK  101  A    between atoms: _244  and  _247
REMARK  102  A    between atoms: _247  and  _248
REMARK  103  A    between atoms: _248  and  _249
REMARK  104  A    between atoms: _254  and  _256
REMARK  105  A    between atoms: _256  and  _257
REMARK  106  A    between atoms: _256  and  _259
REMARK  107  A    between atoms: _259  and  _260
REMARK  108  A    between atoms: _262  and  _264
REMARK  109  A    between atoms: _264  and  _265
REMARK  110  A    between atoms: _267  and  _269
REMARK  111  A    between atoms: _269  and  _270
REMARK  112  A    between atoms: _269  and  _272
REMARK  113  A    between atoms: _272  and  _273
REMARK  114  A    between atoms: _276  and  _278
REMARK  115  A    between atoms: _278  and  _279
REMARK  116  A    between atoms: _278  and  _281
REMARK  117  A    between atoms: _281  and  _282
REMARK  118  A    between atoms: _287  and  _289
REMARK  119  A    between atoms: _289  and  _290
REMARK  120  A    between atoms: _289  and  _292
REMARK  121  A    between atoms: _292  and  _293
REMARK  122  A    between atoms: _296  and  _298
REMARK  123  A    between atoms: _298  and  _299
REMARK  124  A    between atoms: _302  and  _304
REMARK  125  A    between atoms: _304  and  _305
REMARK  126  A    between atoms: _304  and  _307
REMARK  127  A    between atoms: _307  and  _308
REMARK  128  A    between atoms: _313  and  _314
REMARK  129  A    between atoms: _316  and  _318
REMARK  130  A    between atoms: _318  and  _319
REMARK  131  A    between atoms: _318  and  _321
REMARK  132  A    between atoms: _321  and  _322
REMARK  133  A    between atoms: _327  and  _328
REMARK  134  A    between atoms: _330  and  _332
REMARK  135  A    between atoms: _332  and  _333
REMARK  136  A    between atoms: _332  and  _335
REMARK  137  A    between atoms: _335  and  _336
REMARK  138  A    between atoms: _336  and  _337
REMARK  139  A    between atoms: _342  and  _344
REMARK  140  A    between atoms: _344  and  _345
REMARK  141  A    between atoms: _344  and  _347
REMARK  142  A    between atoms: _350  and  _352
REMARK  143  A    between atoms: _352  and  _353
REMARK  144  A    between atoms: _352  and  _355
REMARK  145  A    between atoms: _358  and  _360
REMARK  146  A    between atoms: _360  and  _361
REMARK  147  A    between atoms: _360  and  _363
REMARK  148  A    between atoms: _363  and  _364
REMARK  149  A    between atoms: _364  and  _365
REMARK  150  A    between atoms: _365  and  _366
REMARK  151  A    between atoms: _375  and  _377
REMARK  152  A    between atoms: _377  and  _378
REMARK  153  A    between atoms: _381  and  _383
REMARK  154  A    between atoms: _383  and  _384
REMARK  155  A    between atoms: _383  and  _386
REMARK  156  A    between atoms: _386  and  _387
REMARK  157  A    between atoms: _389  and  _391
REMARK  158  A    between atoms: _391  and  _392
REMARK  159  A    between atoms: _391  and  _394
REMARK  160  A    between atoms: _394  and  _395
REMARK  161  A    between atoms: _400  and  _402
REMARK  162  A    between atoms: _402  and  _403
REMARK  163  A    between atoms: _402  and  _405
REMARK  164  A    between atoms: _405  and  _406
REMARK  165  A    between atoms: _416  and  _418
REMARK  166  A    between atoms: _418  and  _419
REMARK  167  A    between atoms: _418  and  _421
REMARK  168  A    between atoms: _421  and  _422
REMARK  169  A    between atoms: _425  and  _427
REMARK  170  A    between atoms: _427  and  _428
REMARK  171  A    between atoms: _427  and  _430
REMARK  172  A    between atoms: _430  and  _431
REMARK  173  A    between atoms: _436  and  _437
REMARK  174  A    between atoms: _439  and  _441
REMARK  175  A    between atoms: _441  and  _442
REMARK  176  A    between atoms: _444  and  _446
REMARK  177  A    between atoms: _446  and  _447
REMARK  178  A    between atoms: _446  and  _449
REMARK  179  A    between atoms: _449  and  _450
REMARK  180  A    between atoms: _460  and  _462
REMARK  181  A    between atoms: _462  and  _463
REMARK  182  A    between atoms: _462  and  _465
REMARK  183  A    between atoms: _465  and  _466
REMARK  184  A    between atoms: _468  and  _470
REMARK  185  A    between atoms: _470  and  _471
REMARK  186  A    between atoms: _473  and  _475
REMARK  187  A    between atoms: _475  and  _476
REMARK  188  A    between atoms: _475  and  _478
REMARK  189  A    between atoms: _478  and  _479
REMARK  190  A    between atoms: _482  and  _484
REMARK  191  A    between atoms: _484  and  _485
REMARK  192  A    between atoms: _484  and  _487
REMARK  193  A    between atoms: _487  and  _488
REMARK  194  A    between atoms: _493  and  _495
REMARK  195  A    between atoms: _495  and  _496
REMARK  196  A    between atoms: _495  and  _498
REMARK  197  A    between atoms: _498  and  _499
REMARK  198  A    between atoms: _504  and  _506
REMARK  199  A    between atoms: _506  and  _507
REMARK  200  A    between atoms: _506  and  _509
REMARK  201  A    between atoms: _509  and  _510
REMARK  202  A    between atoms: _517  and  _518
REMARK  203  A    between atoms: _523  and  _525
REMARK  204  A    between atoms: _525  and  _526
REMARK  205  A    between atoms: _525  and  _528
REMARK  206  A    between atoms: _528  and  _529
REMARK  207  A    between atoms: _532  and  _534
REMARK  208  A    between atoms: _534  and  _535
REMARK  209  A    between atoms: _534  and  _537
REMARK  210  A    between atoms: _537  and  _538
REMARK  211  A    between atoms: _540  and  _542
REMARK  212  A    between atoms: _542  and  _543
REMARK  213  A    between atoms: _542  and  _545
REMARK  214  A    between atoms: _545  and  _546
REMARK  215  A    between atoms: _551  and  _552
REMARK  216  A    between atoms: _554  and  _556
REMARK  217  A    between atoms: _556  and  _557
REMARK  218  A    between atoms: _556  and  _559
REMARK  219  A    between atoms: _559  and  _560
REMARK  220  A    between atoms: _562  and  _564
REMARK  221  A    between atoms: _564  and  _565
REMARK  222  A    between atoms: _564  and  _567
REMARK  223  A    between atoms: _567  and  _568
REMARK  224  A    between atoms: _571  and  _573
REMARK  225  A    between atoms: _573  and  _574
REMARK  226  A    between atoms: _573  and  _576
REMARK  227  A    between atoms: _576  and  _577
REMARK  228  A    between atoms: _582  and  _584
REMARK  229  A    between atoms: _584  and  _585
REMARK  230  A    between atoms: _584  and  _587
REMARK  231  A    between atoms: _587  and  _588
REMARK  232  A    between atoms: _594  and  _596
REMARK  233  A    between atoms: _596  and  _597
REMARK  234  A    between atoms: _601  and  _602
REMARK  235  A    between atoms: _607  and  _609
REMARK  236  A    between atoms: _609  and  _610
REMARK  237  A    between atoms: _609  and  _612
REMARK  238  A    between atoms: _612  and  _613
REMARK  239  A    between atoms: _618  and  _619
REMARK  240  A    between atoms: _621  and  _623
REMARK  241  A    between atoms: _623  and  _624
REMARK  242  A    between atoms: _623  and  _626
REMARK  243  A    between atoms: _626  and  _627
REMARK  244  A    between atoms: _627  and  _628
REMARK  245  A    between atoms: _628  and  _629
REMARK  246  A    between atoms: _629  and  _630
REMARK  247  A    between atoms: _634  and  _636
REMARK  248  A    between atoms: _636  and  _637
REMARK  249  A    between atoms: _636  and  _639
REMARK  250  A    between atoms: _639  and  _640
REMARK  251  A    between atoms: _640  and  _641
REMARK  252  A    between atoms: _646  and  _648
REMARK  253  A    between atoms: _648  and  _649
REMARK  254  A    between atoms: _648  and  _651
REMARK  255  A    between atoms: _651  and  _652
REMARK  256  A    between atoms: _655  and  _656
REMARK  257  A    between atoms: _661  and  _663
REMARK  258  A    between atoms: _663  and  _664
REMARK  259  A    between atoms: _663  and  _666
REMARK  260  A    between atoms: _666  and  _667
REMARK  261  A    between atoms: _673  and  _675
REMARK  262  A    between atoms: _675  and  _676
REMARK  263  A    between atoms: _678  and  _680
REMARK  264  A    between atoms: _680  and  _681
REMARK  265  A    between atoms: _680  and  _683
REMARK  266  A    between atoms: _683  and  _684
REMARK  267  A    between atoms: _689  and  _690
REMARK  268  A    between atoms: _692  and  _694
REMARK  269  A    between atoms: _694  and  _695
REMARK  270  A    between atoms: _694  and  _697
REMARK  271  A    between atoms: _697  and  _698
REMARK  272  A    between atoms: _701  and  _703
REMARK  273  A    between atoms: _703  and  _704
REMARK  274  A    between atoms: _703  and  _706
REMARK  275  A    between atoms: _706  and  _707
REMARK  276  A    between atoms: _712  and  _713
REMARK                            x       y       z     vdW  Elec       q    Type
REMARK                         _______ _______ _______ _____ _____    ______ ____
ROOT
ATOM      1  O   HOH     1      24.783 -16.171 -15.460  0.00  0.00    +0.000 OA
ENDROOT
TORSDOF 0
REMARK  Name = ../refined-set-2016/3m8u/3m8u_pocket.pdb
REMARK  276 active torsions:
REMARK  status: ('A' for Active; 'I' for Inactive)
REMARK    1  A    between atoms: _1  and  _3
REMARK    2  A    between atoms: _3  and  _4
REMARK    3  A    between atoms: _3  and  _6
REMARK    4  A    between atoms: _6  and  _7
REMARK    5  A    between atoms: _12  and  _14
REMARK    6  A    between atoms: _14  and  _15
REMARK    7  A    between atoms: _14  and  _17
REMARK    8  A    between atoms: _20  and  _22
REMARK    9  A    between atoms: _22  and  _23
REMARK   10  A    between atoms: _22  and  _25
REMARK   11  A    between atoms: _25  and  _26
REMARK   12  A    between atoms: _28  and  _30
REMARK   13  A    between atoms: _30  and  _31
REMARK   14  A    between atoms: _30  and  _33
REMARK   15  A    between atoms: _33  and  _34
REMARK   16  A    between atoms: _34  and  _35
REMARK   17  A    between atoms: _35  and  _36
REMARK   18  A    between atoms: _45  and  _47
REMARK   19  A    between atoms: _47  and  _48
REMARK   20  A    between atoms: _47  and  _50
REMARK   21  A    between atoms: _50  and  _51
REMARK   22  A    between atoms: _54  and  _56
REMARK   23  A    between atoms: _56  and  _57
REMARK   24  A    between atoms: _56  and  _59
REMARK   25  A    between atoms: _62  and  _64
REMARK   26  A    between atoms: _64  and  _65
REMARK   27  A    between atoms: _64  and  _67
REMARK   28  A    between atoms: _67  and  _68
REMARK   29  A    between atoms: _68  and  _69
REMARK   30  A    between atoms: _71  and  _73
REMARK   31  A    between atoms: _73  and  _74
REMARK   32  A    between atoms: _73  and  _76
REMARK   33  A    between atoms: _76  and  _77
REMARK   34  A    between atoms: _80  and  _82
REMARK   35  A    between atoms: _82  and  _83
REMARK   36  A    between atoms: _85  and  _87
REMARK   37  A    between atoms: _87  and  _88
REMARK   38  A    between atoms: _87  and  _90
REMARK   39  A    between atoms: _90  and  _91
REMARK   40  A    between atoms: _94  and  _96
REMARK   41  A    between atoms: _96  and  _97
REMARK   42  A    between atoms: _96  and  _99
REMARK   43  A    between atoms: _99  and  _100
REMARK   44  A    between atoms: _102  and  _104
REMARK   45  A    between atoms: _104  and  _105
REMARK   46  A    between atoms: _104  and  _107
REMARK   47  A    between atoms: _107  and  _108
REMARK   48  A    between atoms: _113  and  _114
REMARK   49  A    between atoms: _116  and  _118
REMARK   50  A    between atoms: _118  and  _119
REMARK   51  A    between atoms: _118  and  _121
REMARK   52  A    between atoms: _121  and  _122
REMARK   53  A    between atoms: _127  and  _129
REMARK   54  A    between atoms: _129  and  _130
REMARK   55  A    between atoms: _133  and  _135
REMARK   56  A    between atoms: _135  and  _136
REMARK   57  A    between atoms: _135  and  _138
REMARK   58  A    between atoms: _138  and  _139
REMARK   59  A    between atoms: _139  and  _140
REMARK   60  A    between atoms: _145  and  _147
REMARK   61  A    between atoms: _147  and  _148
REMARK   62  A    between atoms: _147  and  _150
REMARK   63  A    between atoms: _150  and  _151
REMARK   64  A    between atoms: _156  and  _157
REMARK   65  A    between atoms: _159  and  _161
REMARK   66  A    between atoms: _161  and  _162
REMARK   67  A    between atoms: _161  and  _164
REMARK   68  A    between atoms: _164  and  _165
REMARK   69  A    between atoms: _165  and  _166
REMARK   70  A    between atoms: _168  and  _170
REMARK   71  A    between atoms: _170  and  _171
REMARK   72  A    between atoms: _170  and  _173
REMARK   73  A    between atoms: _173  and  _174
REMARK   74  A    between atoms: _177  and  _179
REMARK   75  A    between atoms: _179  and  _180
REMARK   76  A    between atoms: _179  and  _182
REMARK   77  A    between atoms: _182  and  _183
REMARK   78  A    between atoms: _186  and  _188
REMARK   79  A    between atoms: _188  and  _189
REMARK   80  A    between atoms: _188  and  _191
REMARK   81  A    between atoms: _191  and  _192
REMARK   82  A    between atoms: _195  and  _197
REMARK   83  A    between atoms: _197  and  _198
REMARK   84  A    between atoms: _197  and  _200
REMARK   85  A    between atoms: _200  and  _201
REMARK   86  A    between atoms: _204  and  _206
REMARK   87  A    between atoms: _206  and  _207
REMARK   88  A    between atoms: _206  and  _209
REMARK   89  A    between atoms: _209  and  _210
REMARK   90  A    between atoms: _217  and  _218
REMARK   91  A    between atoms: _223  and  _225
REMARK   92  A    between atoms: _225  and  _226
REMARK   93  A    between atoms: _225  and  _228
REMARK   94  A    between atoms: _228  and  _229
REMARK   95  A    between atoms: _234  and  _236
REMARK   96  A    between atoms: _236  and  _237
REMARK   97  A    between atoms: _236  and  _239
REMARK   98  A    between atoms: _239  and  _240
REMARK   99  A    between atoms: _242  and  _244
REMARK  100  A    between atoms: _244  and  _245
REMARK  101  A    between atoms: _244  and  _247
REMARK  102  A    between atoms: _247  and  _248
REMARK  103  A    between atoms: _248  and  _249
REMARK  104  A    between atoms: _254  and  _256
REMARK  105  A    between atoms: _256  and  _257
REMARK  106  A    between atoms: _256  and  _259
REMARK  107  A    between atoms: _259  and  _260
REMARK  108  A    between atoms: _262  and  _264
REMARK  109  A    between atoms: _264  and  _265
REMARK  110  A    between atoms: _267  and  _269
REMARK  111  A    between atoms: _269  and  _270
REMARK  112  A    between atoms: _269  and  _272
REMARK  113  A    between atoms: _272  and  _273
REMARK  114  A    between atoms: _276  and  _278
REMARK  115  A    between atoms: _278  and  _279
REMARK  116  A    between atoms: _278  and  _281
REMARK  117  A    between atoms: _281  and  _282
REMARK  118  A    between atoms: _287  and  _289
REMARK  119  A    between atoms: _289  and  _290
REMARK  120  A    between atoms: _289  and  _292
REMARK  121  A    between atoms: _292  and  _293
REMARK  122  A    between atoms: _296  and  _298
REMARK  123  A    between atoms: _298  and  _299
REMARK  124  A    between atoms: _302  and  _304
REMARK  125  A    between atoms: _304  and  _305
REMARK  126  A    between atoms: _304  and  _307
REMARK  127  A    between atoms: _307  and  _308
REMARK  128  A    between atoms: _313  and  _314
REMARK  129  A    between atoms: _316  and  _318
REMARK  130  A    between atoms: _318  and  _319
REMARK  131  A    between atoms: _318  and  _321
REMARK  132  A    between atoms: _321  and  _322
REMARK  133  A    between atoms: _327  and  _328
REMARK  134  A    between atoms: _330  and  _332
REMARK  135  A    between atoms: _332  and  _333
REMARK  136  A    between atoms: _332  and  _335
REMARK  137  A    between atoms: _335  and  _336
REMARK  138  A    between atoms: _336  and  _337
REMARK  139  A    between atoms: _342  and  _344
REMARK  140  A    between atoms: _344  and  _345
REMARK  141  A    between atoms: _344  and  _347
REMARK  142  A    between atoms: _350  and  _352
REMARK  143  A    between atoms: _352  and  _353
REMARK  144  A    between atoms: _352  and  _355
REMARK  145  A    between atoms: _358  and  _360
REMARK  146  A    between atoms: _360  and  _361
REMARK  147  A    between atoms: _360  and  _363
REMARK  148  A    between atoms: _363  and  _364
REMARK  149  A    between atoms: _364  and  _365
REMARK  150  A    between atoms: _365  and  _366
REMARK  151  A    between atoms: _375  and  _377
REMARK  152  A    between atoms: _377  and  _378
REMARK  153  A    between atoms: _381  and  _383
REMARK  154  A    between atoms: _383  and  _384
REMARK  155  A    between atoms: _383  and  _386
REMARK  156  A    between atoms: _386  and  _387
REMARK  157  A    between atoms: _389  and  _391
REMARK  158  A    between atoms: _391  and  _392
REMARK  159  A    between atoms: _391  and  _394
REMARK  160  A    between atoms: _394  and  _395
REMARK  161  A    between atoms: _400  and  _402
REMARK  162  A    between atoms: _402  and  _403
REMARK  163  A    between atoms: _402  and  _405
REMARK  164  A    between atoms: _405  and  _406
REMARK  165  A    between atoms: _416  and  _418
REMARK  166  A    between atoms: _418  and  _419
REMARK  167  A    between atoms: _418  and  _421
REMARK  168  A    between atoms: _421  and  _422
REMARK  169  A    between atoms: _425  and  _427
REMARK  170  A    between atoms: _427  and  _428
REMARK  171  A    between atoms: _427  and  _430
REMARK  172  A    between atoms: _430  and  _431
REMARK  173  A    between atoms: _436  and  _437
REMARK  174  A    between atoms: _439  and  _441
REMARK  175  A    between atoms: _441  and  _442
REMARK  176  A    between atoms: _444  and  _446
REMARK  177  A    between atoms: _446  and  _447
REMARK  178  A    between atoms: _446  and  _449
REMARK  179  A    between atoms: _449  and  _450
REMARK  180  A    between atoms: _460  and  _462
REMARK  181  A    between atoms: _462  and  _463
REMARK  182  A    between atoms: _462  and  _465
REMARK  183  A    between atoms: _465  and  _466
REMARK  184  A    between atoms: _468  and  _470
REMARK  185  A    between atoms: _470  and  _471
REMARK  186  A    between atoms: _473  and  _475
REMARK  187  A    between atoms: _475  and  _476
REMARK  188  A    between atoms: _475  and  _478
REMARK  189  A    between atoms: _478  and  _479
REMARK  190  A    between atoms: _482  and  _484
REMARK  191  A    between atoms: _484  and  _485
REMARK  192  A    between atoms: _484  and  _487
REMARK  193  A    between atoms: _487  and  _488
REMARK  194  A    between atoms: _493  and  _495
REMARK  195  A    between atoms: _495  and  _496
REMARK  196  A    between atoms: _495  and  _498
REMARK  197  A    between atoms: _498  and  _499
REMARK  198  A    between atoms: _504  and  _506
REMARK  199  A    between atoms: _506  and  _507
REMARK  200  A    between atoms: _506  and  _509
REMARK  201  A    between atoms: _509  and  _510
REMARK  202  A    between atoms: _517  and  _518
REMARK  203  A    between atoms: _523  and  _525
REMARK  204  A    between atoms: _525  and  _526
REMARK  205  A    between atoms: _525  and  _528
REMARK  206  A    between atoms: _528  and  _529
REMARK  207  A    between atoms: _532  and  _534
REMARK  208  A    between atoms: _534  and  _535
REMARK  209  A    between atoms: _534  and  _537
REMARK  210  A    between atoms: _537  and  _538
REMARK  211  A    between atoms: _540  and  _542
REMARK  212  A    between atoms: _542  and  _543
REMARK  213  A    between atoms: _542  and  _545
REMARK  214  A    between atoms: _545  and  _546
REMARK  215  A    between atoms: _551  and  _552
REMARK  216  A    between atoms: _554  and  _556
REMARK  217  A    between atoms: _556  and  _557
REMARK  218  A    between atoms: _556  and  _559
REMARK  219  A    between atoms: _559  and  _560
REMARK  220  A    between atoms: _562  and  _564
REMARK  221  A    between atoms: _564  and  _565
REMARK  222  A    between atoms: _564  and  _567
REMARK  223  A    between atoms: _567  and  _568
REMARK  224  A    between atoms: _571  and  _573
REMARK  225  A    between atoms: _573  and  _574
REMARK  226  A    between atoms: _573  and  _576
REMARK  227  A    between atoms: _576  and  _577
REMARK  228  A    between atoms: _582  and  _584
REMARK  229  A    between atoms: _584  and  _585
REMARK  230  A    between atoms: _584  and  _587
REMARK  231  A    between atoms: _587  and  _588
REMARK  232  A    between atoms: _594  and  _596
REMARK  233  A    between atoms: _596  and  _597
REMARK  234  A    between atoms: _601  and  _602
REMARK  235  A    between atoms: _607  and  _609
REMARK  236  A    between atoms: _609  and  _610
REMARK  237  A    between atoms: _609  and  _612
REMARK  238  A    between atoms: _612  and  _613
REMARK  239  A    between atoms: _618  and  _619
REMARK  240  A    between atoms: _621  and  _623
REMARK  241  A    between atoms: _623  and  _624
REMARK  242  A    between atoms: _623  and  _626
REMARK  243  A    between atoms: _626  and  _627
REMARK  244  A    between atoms: _627  and  _628
REMARK  245  A    between atoms: _628  and  _629
REMARK  246  A    between atoms: _629  and  _630
REMARK  247  A    between atoms: _634  and  _636
REMARK  248  A    between atoms: _636  and  _637
REMARK  249  A    between atoms: _636  and  _639
REMARK  250  A    between atoms: _639  and  _640
REMARK  251  A    between atoms: _640  and  _641
REMARK  252  A    between atoms: _646  and  _648
REMARK  253  A    between atoms: _648  and  _649
REMARK  254  A    between atoms: _648  and  _651
REMARK  255  A    between atoms: _651  and  _652
REMARK  256  A    between atoms: _655  and  _656
REMARK  257  A    between atoms: _661  and  _663
REMARK  258  A    between atoms: _663  and  _664
REMARK  259  A    between atoms: _663  and  _666
REMARK  260  A    between atoms: _666  and  _667
REMARK  261  A    between atoms: _673  and  _675
REMARK  262  A    between atoms: _675  and  _676
REMARK  263  A    between atoms: _678  and  _680
REMARK  264  A    between atoms: _680  and  _681
REMARK  265  A    between atoms: _680  and  _683
REMARK  266  A    between atoms: _683  and  _684
REMARK  267  A    between atoms: _689  and  _690
REMARK  268  A    between atoms: _692  and  _694
REMARK  269  A    between atoms: _694  and  _695
REMARK  270  A    between atoms: _694  and  _697
REMARK  271  A    between atoms: _697  and  _698
REMARK  272  A    between atoms: _701  and  _703
REMARK  273  A    between atoms: _703  and  _704
REMARK  274  A    between atoms: _703  and  _706
REMARK  275  A    between atoms: _706  and  _707
REMARK  276  A    between atoms: _712  and  _713
REMARK                            x       y       z     vdW  Elec       q    Type
REMARK                         _______ _______ _______ _____ _____    ______ ____
ROOT
ATOM      1  O   HOH     1       3.652 -16.814 -14.405  0.00  0.00    +0.000 OA
ENDROOT
TORSDOF 0
REMARK  Name = ../refined-set-2016/3m8u/3m8u_pocket.pdb
REMARK  276 active torsions:
REMARK  status: ('A' for Active; 'I' for Inactive)
REMARK    1  A    between atoms: _1  and  _3
REMARK    2  A    between atoms: _3  and  _4
REMARK    3  A    between atoms: _3  and  _6
REMARK    4  A    between atoms: _6  and  _7
REMARK    5  A    between atoms: _12  and  _14
REMARK    6  A    between atoms: _14  and  _15
REMARK    7  A    between atoms: _14  and  _17
REMARK    8  A    between atoms: _20  and  _22
REMARK    9  A    between atoms: _22  and  _23
REMARK   10  A    between atoms: _22  and  _25
REMARK   11  A    between atoms: _25  and  _26
REMARK   12  A    between atoms: _28  and  _30
REMARK   13  A    between atoms: _30  and  _31
REMARK   14  A    between atoms: _30  and  _33
REMARK   15  A    between atoms: _33  and  _34
REMARK   16  A    between atoms: _34  and  _35
REMARK   17  A    between atoms: _35  and  _36
REMARK   18  A    between atoms: _45  and  _47
REMARK   19  A    between atoms: _47  and  _48
REMARK   20  A    between atoms: _47  and  _50
REMARK   21  A    between atoms: _50  and  _51
REMARK   22  A    between atoms: _54  and  _56
REMARK   23  A    between atoms: _56  and  _57
REMARK   24  A    between atoms: _56  and  _59
REMARK   25  A    between atoms: _62  and  _64
REMARK   26  A    between atoms: _64  and  _65
REMARK   27  A    between atoms: _64  and  _67
REMARK   28  A    between atoms: _67  and  _68
REMARK   29  A    between atoms: _68  and  _69
REMARK   30  A    between atoms: _71  and  _73
REMARK   31  A    between atoms: _73  and  _74
REMARK   32  A    between atoms: _73  and  _76
REMARK   33  A    between atoms: _76  and  _77
REMARK   34  A    between atoms: _80  and  _82
REMARK   35  A    between atoms: _82  and  _83
REMARK   36  A    between atoms: _85  and  _87
REMARK   37  A    between atoms: _87  and  _88
REMARK   38  A    between atoms: _87  and  _90
REMARK   39  A    between atoms: _90  and  _91
REMARK   40  A    between atoms: _94  and  _96
REMARK   41  A    between atoms: _96  and  _97
REMARK   42  A    between atoms: _96  and  _99
REMARK   43  A    between atoms: _99  and  _100
REMARK   44  A    between atoms: _102  and  _104
REMARK   45  A    between atoms: _104  and  _105
REMARK   46  A    between atoms: _104  and  _107
REMARK   47  A    between atoms: _107  and  _108
REMARK   48  A    between atoms: _113  and  _114
REMARK   49  A    between atoms: _116  and  _118
REMARK   50  A    between atoms: _118  and  _119
REMARK   51  A    between atoms: _118  and  _121
REMARK   52  A    between atoms: _121  and  _122
REMARK   53  A    between atoms: _127  and  _129
REMARK   54  A    between atoms: _129  and  _130
REMARK   55  A    between atoms: _133  and  _135
REMARK   56  A    between atoms: _135  and  _136
REMARK   57  A    between atoms: _135  and  _138
REMARK   58  A    between atoms: _138  and  _139
REMARK   59  A    between atoms: _139  and  _140
REMARK   60  A    between atoms: _145  and  _147
REMARK   61  A    between atoms: _147  and  _148
REMARK   62  A    between atoms: _147  and  _150
REMARK   63  A    between atoms: _150  and  _151
REMARK   64  A    between atoms: _156  and  _157
REMARK   65  A    between atoms: _159  and  _161
REMARK   66  A    between atoms: _161  and  _162
REMARK   67  A    between atoms: _161  and  _164
REMARK   68  A    between atoms: _164  and  _165
REMARK   69  A    between atoms: _165  and  _166
REMARK   70  A    between atoms: _168  and  _170
REMARK   71  A    between atoms: _170  and  _171
REMARK   72  A    between atoms: _170  and  _173
REMARK   73  A    between atoms: _173  and  _174
REMARK   74  A    between atoms: _177  and  _179
REMARK   75  A    between atoms: _179  and  _180
REMARK   76  A    between atoms: _179  and  _182
REMARK   77  A    between atoms: _182  and  _183
REMARK   78  A    between atoms: _186  and  _188
REMARK   79  A    between atoms: _188  and  _189
REMARK   80  A    between atoms: _188  and  _191
REMARK   81  A    between atoms: _191  and  _192
REMARK   82  A    between atoms: _195  and  _197
REMARK   83  A    between atoms: _197  and  _198
REMARK   84  A    between atoms: _197  and  _200
REMARK   85  A    between atoms: _200  and  _201
REMARK   86  A    between atoms: _204  and  _206
REMARK   87  A    between atoms: _206  and  _207
REMARK   88  A    between atoms: _206  and  _209
REMARK   89  A    between atoms: _209  and  _210
REMARK   90  A    between atoms: _217  and  _218
REMARK   91  A    between atoms: _223  and  _225
REMARK   92  A    between atoms: _225  and  _226
REMARK   93  A    between atoms: _225  and  _228
REMARK   94  A    between atoms: _228  and  _229
REMARK   95  A    between atoms: _234  and  _236
REMARK   96  A    between atoms: _236  and  _237
REMARK   97  A    between atoms: _236  and  _239
REMARK   98  A    between atoms: _239  and  _240
REMARK   99  A    between atoms: _242  and  _244
REMARK  100  A    between atoms: _244  and  _245
REMARK  101  A    between atoms: _244  and  _247
REMARK  102  A    between atoms: _247  and  _248
REMARK  103  A    between atoms: _248  and  _249
REMARK  104  A    between atoms: _254  and  _256
REMARK  105  A    between atoms: _256  and  _257
REMARK  106  A    between atoms: _256  and  _259
REMARK  107  A    between atoms: _259  and  _260
REMARK  108  A    between atoms: _262  and  _264
REMARK  109  A    between atoms: _264  and  _265
REMARK  110  A    between atoms: _267  and  _269
REMARK  111  A    between atoms: _269  and  _270
REMARK  112  A    between atoms: _269  and  _272
REMARK  113  A    between atoms: _272  and  _273
REMARK  114  A    between atoms: _276  and  _278
REMARK  115  A    between atoms: _278  and  _279
REMARK  116  A    between atoms: _278  and  _281
REMARK  117  A    between atoms: _281  and  _282
REMARK  118  A    between atoms: _287  and  _289
REMARK  119  A    between atoms: _289  and  _290
REMARK  120  A    between atoms: _289  and  _292
REMARK  121  A    between atoms: _292  and  _293
REMARK  122  A    between atoms: _296  and  _298
REMARK  123  A    between atoms: _298  and  _299
REMARK  124  A    between atoms: _302  and  _304
REMARK  125  A    between atoms: _304  and  _305
REMARK  126  A    between atoms: _304  and  _307
REMARK  127  A    between atoms: _307  and  _308
REMARK  128  A    between atoms: _313  and  _314
REMARK  129  A    between atoms: _316  and  _318
REMARK  130  A    between atoms: _318  and  _319
REMARK  131  A    between atoms: _318  and  _321
REMARK  132  A    between atoms: _321  and  _322
REMARK  133  A    between atoms: _327  and  _328
REMARK  134  A    between atoms: _330  and  _332
REMARK  135  A    between atoms: _332  and  _333
REMARK  136  A    between atoms: _332  and  _335
REMARK  137  A    between atoms: _335  and  _336
REMARK  138  A    between atoms: _336  and  _337
REMARK  139  A    between atoms: _342  and  _344
REMARK  140  A    between atoms: _344  and  _345
REMARK  141  A    between atoms: _344  and  _347
REMARK  142  A    between atoms: _350  and  _352
REMARK  143  A    between atoms: _352  and  _353
REMARK  144  A    between atoms: _352  and  _355
REMARK  145  A    between atoms: _358  and  _360
REMARK  146  A    between atoms: _360  and  _361
REMARK  147  A    between atoms: _360  and  _363
REMARK  148  A    between atoms: _363  and  _364
REMARK  149  A    between atoms: _364  and  _365
REMARK  150  A    between atoms: _365  and  _366
REMARK  151  A    between atoms: _375  and  _377
REMARK  152  A    between atoms: _377  and  _378
REMARK  153  A    between atoms: _381  and  _383
REMARK  154  A    between atoms: _383  and  _384
REMARK  155  A    between atoms: _383  and  _386
REMARK  156  A    between atoms: _386  and  _387
REMARK  157  A    between atoms: _389  and  _391
REMARK  158  A    between atoms: _391  and  _392
REMARK  159  A    between atoms: _391  and  _394
REMARK  160  A    between atoms: _394  and  _395
REMARK  161  A    between atoms: _400  and  _402
REMARK  162  A    between atoms: _402  and  _403
REMARK  163  A    between atoms: _402  and  _405
REMARK  164  A    between atoms: _405  and  _406
REMARK  165  A    between atoms: _416  and  _418
REMARK  166  A    between atoms: _418  and  _419
REMARK  167  A    between atoms: _418  and  _421
REMARK  168  A    between atoms: _421  and  _422
REMARK  169  A    between atoms: _425  and  _427
REMARK  170  A    between atoms: _427  and  _428
REMARK  171  A    between atoms: _427  and  _430
REMARK  172  A    between atoms: _430  and  _431
REMARK  173  A    between atoms: _436  and  _437
REMARK  174  A    between atoms: _439  and  _441
REMARK  175  A    between atoms: _441  and  _442
REMARK  176  A    between atoms: _444  and  _446
REMARK  177  A    between atoms: _446  and  _447
REMARK  178  A    between atoms: _446  and  _449
REMARK  179  A    between atoms: _449  and  _450
REMARK  180  A    between atoms: _460  and  _462
REMARK  181  A    between atoms: _462  and  _463
REMARK  182  A    between atoms: _462  and  _465
REMARK  183  A    between atoms: _465  and  _466
REMARK  184  A    between atoms: _468  and  _470
REMARK  185  A    between atoms: _470  and  _471
REMARK  186  A    between atoms: _473  and  _475
REMARK  187  A    between atoms: _475  and  _476
REMARK  188  A    between atoms: _475  and  _478
REMARK  189  A    between atoms: _478  and  _479
REMARK  190  A    between atoms: _482  and  _484
REMARK  191  A    between atoms: _484  and  _485
REMARK  192  A    between atoms: _484  and  _487
REMARK  193  A    between atoms: _487  and  _488
REMARK  194  A    between atoms: _493  and  _495
REMARK  195  A    between atoms: _495  and  _496
REMARK  196  A    between atoms: _495  and  _498
REMARK  197  A    between atoms: _498  and  _499
REMARK  198  A    between atoms: _504  and  _506
REMARK  199  A    between atoms: _506  and  _507
REMARK  200  A    between atoms: _506  and  _509
REMARK  201  A    between atoms: _509  and  _510
REMARK  202  A    between atoms: _517  and  _518
REMARK  203  A    between atoms: _523  and  _525
REMARK  204  A    between atoms: _525  and  _526
REMARK  205  A    between atoms: _525  and  _528
REMARK  206  A    between atoms: _528  and  _529
REMARK  207  A    between atoms: _532  and  _534
REMARK  208  A    between atoms: _534  and  _535
REMARK  209  A    between atoms: _534  and  _537
REMARK  210  A    between atoms: _537  and  _538
REMARK  211  A    between atoms: _540  and  _542
REMARK  212  A    between atoms: _542  and  _543
REMARK  213  A    between atoms: _542  and  _545
REMARK  214  A    between atoms: _545  and  _546
REMARK  215  A    between atoms: _551  and  _552
REMARK  216  A    between atoms: _554  and  _556
REMARK  217  A    between atoms: _556  and  _557
REMARK  218  A    between atoms: _556  and  _559
REMARK  219  A    between atoms: _559  and  _560
REMARK  220  A    between atoms: _562  and  _564
REMARK  221  A    between atoms: _564  and  _565
REMARK  222  A    between atoms: _564  and  _567
REMARK  223  A    between atoms: _567  and  _568
REMARK  224  A    between atoms: _571  and  _573
REMARK  225  A    between atoms: _573  and  _574
REMARK  226  A    between atoms: _573  and  _576
REMARK  227  A    between atoms: _576  and  _577
REMARK  228  A    between atoms: _582  and  _584
REMARK  229  A    between atoms: _584  and  _585
REMARK  230  A    between atoms: _584  and  _587
REMARK  231  A    between atoms: _587  and  _588
REMARK  232  A    between atoms: _594  and  _596
REMARK  233  A    between atoms: _596  and  _597
REMARK  234  A    between atoms: _601  and  _602
REMARK  235  A    between atoms: _607  and  _609
REMARK  236  A    between atoms: _609  and  _610
REMARK  237  A    between atoms: _609  and  _612
REMARK  238  A    between atoms: _612  and  _613
REMARK  239  A    between atoms: _618  and  _619
REMARK  240  A    between atoms: _621  and  _623
REMARK  241  A    between atoms: _623  and  _624
REMARK  242  A    between atoms: _623  and  _626
REMARK  243  A    between atoms: _626  and  _627
REMARK  244  A    between atoms: _627  and  _628
REMARK  245  A    between atoms: _628  and  _629
REMARK  246  A    between atoms: _629  and  _630
REMARK  247  A    between atoms: _634  and  _636
REMARK  248  A    between atoms: _636  and  _637
REMARK  249  A    between atoms: _636  and  _639
REMARK  250  A    between atoms: _639  and  _640
REMARK  251  A    between atoms: _640  and  _641
REMARK  252  A    between atoms: _646  and  _648
REMARK  253  A    between atoms: _648  and  _649
REMARK  254  A    between atoms: _648  and  _651
REMARK  255  A    between atoms: _651  and  _652
REMARK  256  A    between atoms: _655  and  _656
REMARK  257  A    between atoms: _661  and  _663
REMARK  258  A    between atoms: _663  and  _664
REMARK  259  A    between atoms: _663  and  _666
REMARK  260  A    between atoms: _666  and  _667
REMARK  261  A    between atoms: _673  and  _675
REMARK  262  A    between atoms: _675  and  _676
REMARK  263  A    between atoms: _678  and  _680
REMARK  264  A    between atoms: _680  and  _681
REMARK  265  A    between atoms: _680  and  _683
REMARK  266  A    between atoms: _683  and  _684
REMARK  267  A    between atoms: _689  and  _690
REMARK  268  A    between atoms: _692  and  _694
REMARK  269  A    between atoms: _694  and  _695
REMARK  270  A    between atoms: _694  and  _697
REMARK  271  A    between atoms: _697  and  _698
REMARK  272  A    between atoms: _701  and  _703
REMARK  273  A    between atoms: _703  and  _704
REMARK  274  A    between atoms: _703  and  _706
REMARK  275  A    between atoms: _706  and  _707
REMARK  276  A    between atoms: _712  and  _713
REMARK                            x       y       z     vdW  Elec       q    Type
REMARK                         _______ _______ _______ _____ _____    ______ ____
ROOT
ATOM      1  O   HOH     1      16.775  -6.392 -12.814  0.00  0.00    +0.000 OA
ENDROOT
TORSDOF 0
REMARK  Name = ../refined-set-2016/3m8u/3m8u_pocket.pdb
REMARK  276 active torsions:
REMARK  status: ('A' for Active; 'I' for Inactive)
REMARK    1  A    between atoms: _1  and  _3
REMARK    2  A    between atoms: _3  and  _4
REMARK    3  A    between atoms: _3  and  _6
REMARK    4  A    between atoms: _6  and  _7
REMARK    5  A    between atoms: _12  and  _14
REMARK    6  A    between atoms: _14  and  _15
REMARK    7  A    between atoms: _14  and  _17
REMARK    8  A    between atoms: _20  and  _22
REMARK    9  A    between atoms: _22  and  _23
REMARK   10  A    between atoms: _22  and  _25
REMARK   11  A    between atoms: _25  and  _26
REMARK   12  A    between atoms: _28  and  _30
REMARK   13  A    between atoms: _30  and  _31
REMARK   14  A    between atoms: _30  and  _33
REMARK   15  A    between atoms: _33  and  _34
REMARK   16  A    between atoms: _34  and  _35
REMARK   17  A    between atoms: _35  and  _36
REMARK   18  A    between atoms: _45  and  _47
REMARK   19  A    between atoms: _47  and  _48
REMARK   20  A    between atoms: _47  and  _50
REMARK   21  A    between atoms: _50  and  _51
REMARK   22  A    between atoms: _54  and  _56
REMARK   23  A    between atoms: _56  and  _57
REMARK   24  A    between atoms: _56  and  _59
REMARK   25  A    between atoms: _62  and  _64
REMARK   26  A    between atoms: _64  and  _65
REMARK   27  A    between atoms: _64  and  _67
REMARK   28  A    between atoms: _67  and  _68
REMARK   29  A    between atoms: _68  and  _69
REMARK   30  A    between atoms: _71  and  _73
REMARK   31  A    between atoms: _73  and  _74
REMARK   32  A    between atoms: _73  and  _76
REMARK   33  A    between atoms: _76  and  _77
REMARK   34  A    between atoms: _80  and  _82
REMARK   35  A    between atoms: _82  and  _83
REMARK   36  A    between atoms: _85  and  _87
REMARK   37  A    between atoms: _87  and  _88
REMARK   38  A    between atoms: _87  and  _90
REMARK   39  A    between atoms: _90  and  _91
REMARK   40  A    between atoms: _94  and  _96
REMARK   41  A    between atoms: _96  and  _97
REMARK   42  A    between atoms: _96  and  _99
REMARK   43  A    between atoms: _99  and  _100
REMARK   44  A    between atoms: _102  and  _104
REMARK   45  A    between atoms: _104  and  _105
REMARK   46  A    between atoms: _104  and  _107
REMARK   47  A    between atoms: _107  and  _108
REMARK   48  A    between atoms: _113  and  _114
REMARK   49  A    between atoms: _116  and  _118
REMARK   50  A    between atoms: _118  and  _119
REMARK   51  A    between atoms: _118  and  _121
REMARK   52  A    between atoms: _121  and  _122
REMARK   53  A    between atoms: _127  and  _129
REMARK   54  A    between atoms: _129  and  _130
REMARK   55  A    between atoms: _133  and  _135
REMARK   56  A    between atoms: _135  and  _136
REMARK   57  A    between atoms: _135  and  _138
REMARK   58  A    between atoms: _138  and  _139
REMARK   59  A    between atoms: _139  and  _140
REMARK   60  A    between atoms: _145  and  _147
REMARK   61  A    between atoms: _147  and  _148
REMARK   62  A    between atoms: _147  and  _150
REMARK   63  A    between atoms: _150  and  _151
REMARK   64  A    between atoms: _156  and  _157
REMARK   65  A    between atoms: _159  and  _161
REMARK   66  A    between atoms: _161  and  _162
REMARK   67  A    between atoms: _161  and  _164
REMARK   68  A    between atoms: _164  and  _165
REMARK   69  A    between atoms: _165  and  _166
REMARK   70  A    between atoms: _168  and  _170
REMARK   71  A    between atoms: _170  and  _171
REMARK   72  A    between atoms: _170  and  _173
REMARK   73  A    between atoms: _173  and  _174
REMARK   74  A    between atoms: _177  and  _179
REMARK   75  A    between atoms: _179  and  _180
REMARK   76  A    between atoms: _179  and  _182
REMARK   77  A    between atoms: _182  and  _183
REMARK   78  A    between atoms: _186  and  _188
REMARK   79  A    between atoms: _188  and  _189
REMARK   80  A    between atoms: _188  and  _191
REMARK   81  A    between atoms: _191  and  _192
REMARK   82  A    between atoms: _195  and  _197
REMARK   83  A    between atoms: _197  and  _198
REMARK   84  A    between atoms: _197  and  _200
REMARK   85  A    between atoms: _200  and  _201
REMARK   86  A    between atoms: _204  and  _206
REMARK   87  A    between atoms: _206  and  _207
REMARK   88  A    between atoms: _206  and  _209
REMARK   89  A    between atoms: _209  and  _210
REMARK   90  A    between atoms: _217  and  _218
REMARK   91  A    between atoms: _223  and  _225
REMARK   92  A    between atoms: _225  and  _226
REMARK   93  A    between atoms: _225  and  _228
REMARK   94  A    between atoms: _228  and  _229
REMARK   95  A    between atoms: _234  and  _236
REMARK   96  A    between atoms: _236  and  _237
REMARK   97  A    between atoms: _236  and  _239
REMARK   98  A    between atoms: _239  and  _240
REMARK   99  A    between atoms: _242  and  _244
REMARK  100  A    between atoms: _244  and  _245
REMARK  101  A    between atoms: _244  and  _247
REMARK  102  A    between atoms: _247  and  _248
REMARK  103  A    between atoms: _248  and  _249
REMARK  104  A    between atoms: _254  and  _256
REMARK  105  A    between atoms: _256  and  _257
REMARK  106  A    between atoms: _256  and  _259
REMARK  107  A    between atoms: _259  and  _260
REMARK  108  A    between atoms: _262  and  _264
REMARK  109  A    between atoms: _264  and  _265
REMARK  110  A    between atoms: _267  and  _269
REMARK  111  A    between atoms: _269  and  _270
REMARK  112  A    between atoms: _269  and  _272
REMARK  113  A    between atoms: _272  and  _273
REMARK  114  A    between atoms: _276  and  _278
REMARK  115  A    between atoms: _278  and  _279
REMARK  116  A    between atoms: _278  and  _281
REMARK  117  A    between atoms: _281  and  _282
REMARK  118  A    between atoms: _287  and  _289
REMARK  119  A    between atoms: _289  and  _290
REMARK  120  A    between atoms: _289  and  _292
REMARK  121  A    between atoms: _292  and  _293
REMARK  122  A    between atoms: _296  and  _298
REMARK  123  A    between atoms: _298  and  _299
REMARK  124  A    between atoms: _302  and  _304
REMARK  125  A    between atoms: _304  and  _305
REMARK  126  A    between atoms: _304  and  _307
REMARK  127  A    between atoms: _307  and  _308
REMARK  128  A    between atoms: _313  and  _314
REMARK  129  A    between atoms: _316  and  _318
REMARK  130  A    between atoms: _318  and  _319
REMARK  131  A    between atoms: _318  and  _321
REMARK  132  A    between atoms: _321  and  _322
REMARK  133  A    between atoms: _327  and  _328
REMARK  134  A    between atoms: _330  and  _332
REMARK  135  A    between atoms: _332  and  _333
REMARK  136  A    between atoms: _332  and  _335
REMARK  137  A    between atoms: _335  and  _336
REMARK  138  A    between atoms: _336  and  _337
REMARK  139  A    between atoms: _342  and  _344
REMARK  140  A    between atoms: _344  and  _345
REMARK  141  A    between atoms: _344  and  _347
REMARK  142  A    between atoms: _350  and  _352
REMARK  143  A    between atoms: _352  and  _353
REMARK  144  A    between atoms: _352  and  _355
REMARK  145  A    between atoms: _358  and  _360
REMARK  146  A    between atoms: _360  and  _361
REMARK  147  A    between atoms: _360  and  _363
REMARK  148  A    between atoms: _363  and  _364
REMARK  149  A    between atoms: _364  and  _365
REMARK  150  A    between atoms: _365  and  _366
REMARK  151  A    between atoms: _375  and  _377
REMARK  152  A    between atoms: _377  and  _378
REMARK  153  A    between atoms: _381  and  _383
REMARK  154  A    between atoms: _383  and  _384
REMARK  155  A    between atoms: _383  and  _386
REMARK  156  A    between atoms: _386  and  _387
REMARK  157  A    between atoms: _389  and  _391
REMARK  158  A    between atoms: _391  and  _392
REMARK  159  A    between atoms: _391  and  _394
REMARK  160  A    between atoms: _394  and  _395
REMARK  161  A    between atoms: _400  and  _402
REMARK  162  A    between atoms: _402  and  _403
REMARK  163  A    between atoms: _402  and  _405
REMARK  164  A    between atoms: _405  and  _406
REMARK  165  A    between atoms: _416  and  _418
REMARK  166  A    between atoms: _418  and  _419
REMARK  167  A    between atoms: _418  and  _421
REMARK  168  A    between atoms: _421  and  _422
REMARK  169  A    between atoms: _425  and  _427
REMARK  170  A    between atoms: _427  and  _428
REMARK  171  A    between atoms: _427  and  _430
REMARK  172  A    between atoms: _430  and  _431
REMARK  173  A    between atoms: _436  and  _437
REMARK  174  A    between atoms: _439  and  _441
REMARK  175  A    between atoms: _441  and  _442
REMARK  176  A    between atoms: _444  and  _446
REMARK  177  A    between atoms: _446  and  _447
REMARK  178  A    between atoms: _446  and  _449
REMARK  179  A    between atoms: _449  and  _450
REMARK  180  A    between atoms: _460  and  _462
REMARK  181  A    between atoms: _462  and  _463
REMARK  182  A    between atoms: _462  and  _465
REMARK  183  A    between atoms: _465  and  _466
REMARK  184  A    between atoms: _468  and  _470
REMARK  185  A    between atoms: _470  and  _471
REMARK  186  A    between atoms: _473  and  _475
REMARK  187  A    between atoms: _475  and  _476
REMARK  188  A    between atoms: _475  and  _478
REMARK  189  A    between atoms: _478  and  _479
REMARK  190  A    between atoms: _482  and  _484
REMARK  191  A    between atoms: _484  and  _485
REMARK  192  A    between atoms: _484  and  _487
REMARK  193  A    between atoms: _487  and  _488
REMARK  194  A    between atoms: _493  and  _495
REMARK  195  A    between atoms: _495  and  _496
REMARK  196  A    between atoms: _495  and  _498
REMARK  197  A    between atoms: _498  and  _499
REMARK  198  A    between atoms: _504  and  _506
REMARK  199  A    between atoms: _506  and  _507
REMARK  200  A    between atoms: _506  and  _509
REMARK  201  A    between atoms: _509  and  _510
REMARK  202  A    between atoms: _517  and  _518
REMARK  203  A    between atoms: _523  and  _525
REMARK  204  A    between atoms: _525  and  _526
REMARK  205  A    between atoms: _525  and  _528
REMARK  206  A    between atoms: _528  and  _529
REMARK  207  A    between atoms: _532  and  _534
REMARK  208  A    between atoms: _534  and  _535
REMARK  209  A    between atoms: _534  and  _537
REMARK  210  A    between atoms: _537  and  _538
REMARK  211  A    between atoms: _540  and  _542
REMARK  212  A    between atoms: _542  and  _543
REMARK  213  A    between atoms: _542  and  _545
REMARK  214  A    between atoms: _545  and  _546
REMARK  215  A    between atoms: _551  and  _552
REMARK  216  A    between atoms: _554  and  _556
REMARK  217  A    between atoms: _556  and  _557
REMARK  218  A    between atoms: _556  and  _559
REMARK  219  A    between atoms: _559  and  _560
REMARK  220  A    between atoms: _562  and  _564
REMARK  221  A    between atoms: _564  and  _565
REMARK  222  A    between atoms: _564  and  _567
REMARK  223  A    between atoms: _567  and  _568
REMARK  224  A    between atoms: _571  and  _573
REMARK  225  A    between atoms: _573  and  _574
REMARK  226  A    between atoms: _573  and  _576
REMARK  227  A    between atoms: _576  and  _577
REMARK  228  A    between atoms: _582  and  _584
REMARK  229  A    between atoms: _584  and  _585
REMARK  230  A    between atoms: _584  and  _587
REMARK  231  A    between atoms: _587  and  _588
REMARK  232  A    between atoms: _594  and  _596
REMARK  233  A    between atoms: _596  and  _597
REMARK  234  A    between atoms: _601  and  _602
REMARK  235  A    between atoms: _607  and  _609
REMARK  236  A    between atoms: _609  and  _610
REMARK  237  A    between atoms: _609  and  _612
REMARK  238  A    between atoms: _612  and  _613
REMARK  239  A    between atoms: _618  and  _619
REMARK  240  A    between atoms: _621  and  _623
REMARK  241  A    between atoms: _623  and  _624
REMARK  242  A    between atoms: _623  and  _626
REMARK  243  A    between atoms: _626  and  _627
REMARK  244  A    between atoms: _627  and  _628
REMARK  245  A    between atoms: _628  and  _629
REMARK  246  A    between atoms: _629  and  _630
REMARK  247  A    between atoms: _634  and  _636
REMARK  248  A    between atoms: _636  and  _637
REMARK  249  A    between atoms: _636  and  _639
REMARK  250  A    between atoms: _639  and  _640
REMARK  251  A    between atoms: _640  and  _641
REMARK  252  A    between atoms: _646  and  _648
REMARK  253  A    between atoms: _648  and  _649
REMARK  254  A    between atoms: _648  and  _651
REMARK  255  A    between atoms: _651  and  _652
REMARK  256  A    between atoms: _655  and  _656
REMARK  257  A    between atoms: _661  and  _663
REMARK  258  A    between atoms: _663  and  _664
REMARK  259  A    between atoms: _663  and  _666
REMARK  260  A    between atoms: _666  and  _667
REMARK  261  A    between atoms: _673  and  _675
REMARK  262  A    between atoms: _675  and  _676
REMARK  263  A    between atoms: _678  and  _680
REMARK  264  A    between atoms: _680  and  _681
REMARK  265  A    between atoms: _680  and  _683
REMARK  266  A    between atoms: _683  and  _684
REMARK  267  A    between atoms: _689  and  _690
REMARK  268  A    between atoms: _692  and  _694
REMARK  269  A    between atoms: _694  and  _695
REMARK  270  A    between atoms: _694  and  _697
REMARK  271  A    between atoms: _697  and  _698
REMARK  272  A    between atoms: _701  and  _703
REMARK  273  A    between atoms: _703  and  _704
REMARK  274  A    between atoms: _703  and  _706
REMARK  275  A    between atoms: _706  and  _707
REMARK  276  A    between atoms: _712  and  _713
REMARK                            x       y       z     vdW  Elec       q    Type
REMARK                         _______ _______ _______ _____ _____    ______ ____
ROOT
ATOM      1  O   HOH     1      14.070 -10.809 -14.989  0.00  0.00    +0.000 OA
ENDROOT
TORSDOF 0
REMARK  Name = ../refined-set-2016/3m8u/3m8u_pocket.pdb
REMARK  276 active torsions:
REMARK  status: ('A' for Active; 'I' for Inactive)
REMARK    1  A    between atoms: _1  and  _3
REMARK    2  A    between atoms: _3  and  _4
REMARK    3  A    between atoms: _3  and  _6
REMARK    4  A    between atoms: _6  and  _7
REMARK    5  A    between atoms: _12  and  _14
REMARK    6  A    between atoms: _14  and  _15
REMARK    7  A    between atoms: _14  and  _17
REMARK    8  A    between atoms: _20  and  _22
REMARK    9  A    between atoms: _22  and  _23
REMARK   10  A    between atoms: _22  and  _25
REMARK   11  A    between atoms: _25  and  _26
REMARK   12  A    between atoms: _28  and  _30
REMARK   13  A    between atoms: _30  and  _31
REMARK   14  A    between atoms: _30  and  _33
REMARK   15  A    between atoms: _33  and  _34
REMARK   16  A    between atoms: _34  and  _35
REMARK   17  A    between atoms: _35  and  _36
REMARK   18  A    between atoms: _45  and  _47
REMARK   19  A    between atoms: _47  and  _48
REMARK   20  A    between atoms: _47  and  _50
REMARK   21  A    between atoms: _50  and  _51
REMARK   22  A    between atoms: _54  and  _56
REMARK   23  A    between atoms: _56  and  _57
REMARK   24  A    between atoms: _56  and  _59
REMARK   25  A    between atoms: _62  and  _64
REMARK   26  A    between atoms: _64  and  _65
REMARK   27  A    between atoms: _64  and  _67
REMARK   28  A    between atoms: _67  and  _68
REMARK   29  A    between atoms: _68  and  _69
REMARK   30  A    between atoms: _71  and  _73
REMARK   31  A    between atoms: _73  and  _74
REMARK   32  A    between atoms: _73  and  _76
REMARK   33  A    between atoms: _76  and  _77
REMARK   34  A    between atoms: _80  and  _82
REMARK   35  A    between atoms: _82  and  _83
REMARK   36  A    between atoms: _85  and  _87
REMARK   37  A    between atoms: _87  and  _88
REMARK   38  A    between atoms: _87  and  _90
REMARK   39  A    between atoms: _90  and  _91
REMARK   40  A    between atoms: _94  and  _96
REMARK   41  A    between atoms: _96  and  _97
REMARK   42  A    between atoms: _96  and  _99
REMARK   43  A    between atoms: _99  and  _100
REMARK   44  A    between atoms: _102  and  _104
REMARK   45  A    between atoms: _104  and  _105
REMARK   46  A    between atoms: _104  and  _107
REMARK   47  A    between atoms: _107  and  _108
REMARK   48  A    between atoms: _113  and  _114
REMARK   49  A    between atoms: _116  and  _118
REMARK   50  A    between atoms: _118  and  _119
REMARK   51  A    between atoms: _118  and  _121
REMARK   52  A    between atoms: _121  and  _122
REMARK   53  A    between atoms: _127  and  _129
REMARK   54  A    between atoms: _129  and  _130
REMARK   55  A    between atoms: _133  and  _135
REMARK   56  A    between atoms: _135  and  _136
REMARK   57  A    between atoms: _135  and  _138
REMARK   58  A    between atoms: _138  and  _139
REMARK   59  A    between atoms: _139  and  _140
REMARK   60  A    between atoms: _145  and  _147
REMARK   61  A    between atoms: _147  and  _148
REMARK   62  A    between atoms: _147  and  _150
REMARK   63  A    between atoms: _150  and  _151
REMARK   64  A    between atoms: _156  and  _157
REMARK   65  A    between atoms: _159  and  _161
REMARK   66  A    between atoms: _161  and  _162
REMARK   67  A    between atoms: _161  and  _164
REMARK   68  A    between atoms: _164  and  _165
REMARK   69  A    between atoms: _165  and  _166
REMARK   70  A    between atoms: _168  and  _170
REMARK   71  A    between atoms: _170  and  _171
REMARK   72  A    between atoms: _170  and  _173
REMARK   73  A    between atoms: _173  and  _174
REMARK   74  A    between atoms: _177  and  _179
REMARK   75  A    between atoms: _179  and  _180
REMARK   76  A    between atoms: _179  and  _182
REMARK   77  A    between atoms: _182  and  _183
REMARK   78  A    between atoms: _186  and  _188
REMARK   79  A    between atoms: _188  and  _189
REMARK   80  A    between atoms: _188  and  _191
REMARK   81  A    between atoms: _191  and  _192
REMARK   82  A    between atoms: _195  and  _197
REMARK   83  A    between atoms: _197  and  _198
REMARK   84  A    between atoms: _197  and  _200
REMARK   85  A    between atoms: _200  and  _201
REMARK   86  A    between atoms: _204  and  _206
REMARK   87  A    between atoms: _206  and  _207
REMARK   88  A    between atoms: _206  and  _209
REMARK   89  A    between atoms: _209  and  _210
REMARK   90  A    between atoms: _217  and  _218
REMARK   91  A    between atoms: _223  and  _225
REMARK   92  A    between atoms: _225  and  _226
REMARK   93  A    between atoms: _225  and  _228
REMARK   94  A    between atoms: _228  and  _229
REMARK   95  A    between atoms: _234  and  _236
REMARK   96  A    between atoms: _236  and  _237
REMARK   97  A    between atoms: _236  and  _239
REMARK   98  A    between atoms: _239  and  _240
REMARK   99  A    between atoms: _242  and  _244
REMARK  100  A    between atoms: _244  and  _245
REMARK  101  A    between atoms: _244  and  _247
REMARK  102  A    between atoms: _247  and  _248
REMARK  103  A    between atoms: _248  and  _249
REMARK  104  A    between atoms: _254  and  _256
REMARK  105  A    between atoms: _256  and  _257
REMARK  106  A    between atoms: _256  and  _259
REMARK  107  A    between atoms: _259  and  _260
REMARK  108  A    between atoms: _262  and  _264
REMARK  109  A    between atoms: _264  and  _265
REMARK  110  A    between atoms: _267  and  _269
REMARK  111  A    between atoms: _269  and  _270
REMARK  112  A    between atoms: _269  and  _272
REMARK  113  A    between atoms: _272  and  _273
REMARK  114  A    between atoms: _276  and  _278
REMARK  115  A    between atoms: _278  and  _279
REMARK  116  A    between atoms: _278  and  _281
REMARK  117  A    between atoms: _281  and  _282
REMARK  118  A    between atoms: _287  and  _289
REMARK  119  A    between atoms: _289  and  _290
REMARK  120  A    between atoms: _289  and  _292
REMARK  121  A    between atoms: _292  and  _293
REMARK  122  A    between atoms: _296  and  _298
REMARK  123  A    between atoms: _298  and  _299
REMARK  124  A    between atoms: _302  and  _304
REMARK  125  A    between atoms: _304  and  _305
REMARK  126  A    between atoms: _304  and  _307
REMARK  127  A    between atoms: _307  and  _308
REMARK  128  A    between atoms: _313  and  _314
REMARK  129  A    between atoms: _316  and  _318
REMARK  130  A    between atoms: _318  and  _319
REMARK  131  A    between atoms: _318  and  _321
REMARK  132  A    between atoms: _321  and  _322
REMARK  133  A    between atoms: _327  and  _328
REMARK  134  A    between atoms: _330  and  _332
REMARK  135  A    between atoms: _332  and  _333
REMARK  136  A    between atoms: _332  and  _335
REMARK  137  A    between atoms: _335  and  _336
REMARK  138  A    between atoms: _336  and  _337
REMARK  139  A    between atoms: _342  and  _344
REMARK  140  A    between atoms: _344  and  _345
REMARK  141  A    between atoms: _344  and  _347
REMARK  142  A    between atoms: _350  and  _352
REMARK  143  A    between atoms: _352  and  _353
REMARK  144  A    between atoms: _352  and  _355
REMARK  145  A    between atoms: _358  and  _360
REMARK  146  A    between atoms: _360  and  _361
REMARK  147  A    between atoms: _360  and  _363
REMARK  148  A    between atoms: _363  and  _364
REMARK  149  A    between atoms: _364  and  _365
REMARK  150  A    between atoms: _365  and  _366
REMARK  151  A    between atoms: _375  and  _377
REMARK  152  A    between atoms: _377  and  _378
REMARK  153  A    between atoms: _381  and  _383
REMARK  154  A    between atoms: _383  and  _384
REMARK  155  A    between atoms: _383  and  _386
REMARK  156  A    between atoms: _386  and  _387
REMARK  157  A    between atoms: _389  and  _391
REMARK  158  A    between atoms: _391  and  _392
REMARK  159  A    between atoms: _391  and  _394
REMARK  160  A    between atoms: _394  and  _395
REMARK  161  A    between atoms: _400  and  _402
REMARK  162  A    between atoms: _402  and  _403
REMARK  163  A    between atoms: _402  and  _405
REMARK  164  A    between atoms: _405  and  _406
REMARK  165  A    between atoms: _416  and  _418
REMARK  166  A    between atoms: _418  and  _419
REMARK  167  A    between atoms: _418  and  _421
REMARK  168  A    between atoms: _421  and  _422
REMARK  169  A    between atoms: _425  and  _427
REMARK  170  A    between atoms: _427  and  _428
REMARK  171  A    between atoms: _427  and  _430
REMARK  172  A    between atoms: _430  and  _431
REMARK  173  A    between atoms: _436  and  _437
REMARK  174  A    between atoms: _439  and  _441
REMARK  175  A    between atoms: _441  and  _442
REMARK  176  A    between atoms: _444  and  _446
REMARK  177  A    between atoms: _446  and  _447
REMARK  178  A    between atoms: _446  and  _449
REMARK  179  A    between atoms: _449  and  _450
REMARK  180  A    between atoms: _460  and  _462
REMARK  181  A    between atoms: _462  and  _463
REMARK  182  A    between atoms: _462  and  _465
REMARK  183  A    between atoms: _465  and  _466
REMARK  184  A    between atoms: _468  and  _470
REMARK  185  A    between atoms: _470  and  _471
REMARK  186  A    between atoms: _473  and  _475
REMARK  187  A    between atoms: _475  and  _476
REMARK  188  A    between atoms: _475  and  _478
REMARK  189  A    between atoms: _478  and  _479
REMARK  190  A    between atoms: _482  and  _484
REMARK  191  A    between atoms: _484  and  _485
REMARK  192  A    between atoms: _484  and  _487
REMARK  193  A    between atoms: _487  and  _488
REMARK  194  A    between atoms: _493  and  _495
REMARK  195  A    between atoms: _495  and  _496
REMARK  196  A    between atoms: _495  and  _498
REMARK  197  A    between atoms: _498  and  _499
REMARK  198  A    between atoms: _504  and  _506
REMARK  199  A    between atoms: _506  and  _507
REMARK  200  A    between atoms: _506  and  _509
REMARK  201  A    between atoms: _509  and  _510
REMARK  202  A    between atoms: _517  and  _518
REMARK  203  A    between atoms: _523  and  _525
REMARK  204  A    between atoms: _525  and  _526
REMARK  205  A    between atoms: _525  and  _528
REMARK  206  A    between atoms: _528  and  _529
REMARK  207  A    between atoms: _532  and  _534
REMARK  208  A    between atoms: _534  and  _535
REMARK  209  A    between atoms: _534  and  _537
REMARK  210  A    between atoms: _537  and  _538
REMARK  211  A    between atoms: _540  and  _542
REMARK  212  A    between atoms: _542  and  _543
REMARK  213  A    between atoms: _542  and  _545
REMARK  214  A    between atoms: _545  and  _546
REMARK  215  A    between atoms: _551  and  _552
REMARK  216  A    between atoms: _554  and  _556
REMARK  217  A    between atoms: _556  and  _557
REMARK  218  A    between atoms: _556  and  _559
REMARK  219  A    between atoms: _559  and  _560
REMARK  220  A    between atoms: _562  and  _564
REMARK  221  A    between atoms: _564  and  _565
REMARK  222  A    between atoms: _564  and  _567
REMARK  223  A    between atoms: _567  and  _568
REMARK  224  A    between atoms: _571  and  _573
REMARK  225  A    between atoms: _573  and  _574
REMARK  226  A    between atoms: _573  and  _576
REMARK  227  A    between atoms: _576  and  _577
REMARK  228  A    between atoms: _582  and  _584
REMARK  229  A    between atoms: _584  and  _585
REMARK  230  A    between atoms: _584  and  _587
REMARK  231  A    between atoms: _587  and  _588
REMARK  232  A    between atoms: _594  and  _596
REMARK  233  A    between atoms: _596  and  _597
REMARK  234  A    between atoms: _601  and  _602
REMARK  235  A    between atoms: _607  and  _609
REMARK  236  A    between atoms: _609  and  _610
REMARK  237  A    between atoms: _609  and  _612
REMARK  238  A    between atoms: _612  and  _613
REMARK  239  A    between atoms: _618  and  _619
REMARK  240  A    between atoms: _621  and  _623
REMARK  241  A    between atoms: _623  and  _624
REMARK  242  A    between atoms: _623  and  _626
REMARK  243  A    between atoms: _626  and  _627
REMARK  244  A    between atoms: _627  and  _628
REMARK  245  A    between atoms: _628  and  _629
REMARK  246  A    between atoms: _629  and  _630
REMARK  247  A    between atoms: _634  and  _636
REMARK  248  A    between atoms: _636  and  _637
REMARK  249  A    between atoms: _636  and  _639
REMARK  250  A    between atoms: _639  and  _640
REMARK  251  A    between atoms: _640  and  _641
REMARK  252  A    between atoms: _646  and  _648
REMARK  253  A    between atoms: _648  and  _649
REMARK  254  A    between atoms: _648  and  _651
REMARK  255  A    between atoms: _651  and  _652
REMARK  256  A    between atoms: _655  and  _656
REMARK  257  A    between atoms: _661  and  _663
REMARK  258  A    between atoms: _663  and  _664
REMARK  259  A    between atoms: _663  and  _666
REMARK  260  A    between atoms: _666  and  _667
REMARK  261  A    between atoms: _673  and  _675
REMARK  262  A    between atoms: _675  and  _676
REMARK  263  A    between atoms: _678  and  _680
REMARK  264  A    between atoms: _680  and  _681
REMARK  265  A    between atoms: _680  and  _683
REMARK  266  A    between atoms: _683  and  _684
REMARK  267  A    between atoms: _689  and  _690
REMARK  268  A    between atoms: _692  and  _694
REMARK  269  A    between atoms: _694  and  _695
REMARK  270  A    between atoms: _694  and  _697
REMARK  271  A    between atoms: _697  and  _698
REMARK  272  A    between atoms: _701  and  _703
REMARK  273  A    between atoms: _703  and  _704
REMARK  274  A    between atoms: _703  and  _706
REMARK  275  A    between atoms: _706  and  _707
REMARK  276  A    between atoms: _712  and  _713
REMARK                            x       y       z     vdW  Elec       q    Type
REMARK                         _______ _______ _______ _____ _____    ______ ____
ROOT
ATOM      1  O   HOH     1      18.108 -10.711 -12.650  0.00  0.00    +0.000 OA
ENDROOT
TORSDOF 0
REMARK  Name = ../refined-set-2016/3m8u/3m8u_pocket.pdb
REMARK  276 active torsions:
REMARK  status: ('A' for Active; 'I' for Inactive)
REMARK    1  A    between atoms: _1  and  _3
REMARK    2  A    between atoms: _3  and  _4
REMARK    3  A    between atoms: _3  and  _6
REMARK    4  A    between atoms: _6  and  _7
REMARK    5  A    between atoms: _12  and  _14
REMARK    6  A    between atoms: _14  and  _15
REMARK    7  A    between atoms: _14  and  _17
REMARK    8  A    between atoms: _20  and  _22
REMARK    9  A    between atoms: _22  and  _23
REMARK   10  A    between atoms: _22  and  _25
REMARK   11  A    between atoms: _25  and  _26
REMARK   12  A    between atoms: _28  and  _30
REMARK   13  A    between atoms: _30  and  _31
REMARK   14  A    between atoms: _30  and  _33
REMARK   15  A    between atoms: _33  and  _34
REMARK   16  A    between atoms: _34  and  _35
REMARK   17  A    between atoms: _35  and  _36
REMARK   18  A    between atoms: _45  and  _47
REMARK   19  A    between atoms: _47  and  _48
REMARK   20  A    between atoms: _47  and  _50
REMARK   21  A    between atoms: _50  and  _51
REMARK   22  A    between atoms: _54  and  _56
REMARK   23  A    between atoms: _56  and  _57
REMARK   24  A    between atoms: _56  and  _59
REMARK   25  A    between atoms: _62  and  _64
REMARK   26  A    between atoms: _64  and  _65
REMARK   27  A    between atoms: _64  and  _67
REMARK   28  A    between atoms: _67  and  _68
REMARK   29  A    between atoms: _68  and  _69
REMARK   30  A    between atoms: _71  and  _73
REMARK   31  A    between atoms: _73  and  _74
REMARK   32  A    between atoms: _73  and  _76
REMARK   33  A    between atoms: _76  and  _77
REMARK   34  A    between atoms: _80  and  _82
REMARK   35  A    between atoms: _82  and  _83
REMARK   36  A    between atoms: _85  and  _87
REMARK   37  A    between atoms: _87  and  _88
REMARK   38  A    between atoms: _87  and  _90
REMARK   39  A    between atoms: _90  and  _91
REMARK   40  A    between atoms: _94  and  _96
REMARK   41  A    between atoms: _96  and  _97
REMARK   42  A    between atoms: _96  and  _99
REMARK   43  A    between atoms: _99  and  _100
REMARK   44  A    between atoms: _102  and  _104
REMARK   45  A    between atoms: _104  and  _105
REMARK   46  A    between atoms: _104  and  _107
REMARK   47  A    between atoms: _107  and  _108
REMARK   48  A    between atoms: _113  and  _114
REMARK   49  A    between atoms: _116  and  _118
REMARK   50  A    between atoms: _118  and  _119
REMARK   51  A    between atoms: _118  and  _121
REMARK   52  A    between atoms: _121  and  _122
REMARK   53  A    between atoms: _127  and  _129
REMARK   54  A    between atoms: _129  and  _130
REMARK   55  A    between atoms: _133  and  _135
REMARK   56  A    between atoms: _135  and  _136
REMARK   57  A    between atoms: _135  and  _138
REMARK   58  A    between atoms: _138  and  _139
REMARK   59  A    between atoms: _139  and  _140
REMARK   60  A    between atoms: _145  and  _147
REMARK   61  A    between atoms: _147  and  _148
REMARK   62  A    between atoms: _147  and  _150
REMARK   63  A    between atoms: _150  and  _151
REMARK   64  A    between atoms: _156  and  _157
REMARK   65  A    between atoms: _159  and  _161
REMARK   66  A    between atoms: _161  and  _162
REMARK   67  A    between atoms: _161  and  _164
REMARK   68  A    between atoms: _164  and  _165
REMARK   69  A    between atoms: _165  and  _166
REMARK   70  A    between atoms: _168  and  _170
REMARK   71  A    between atoms: _170  and  _171
REMARK   72  A    between atoms: _170  and  _173
REMARK   73  A    between atoms: _173  and  _174
REMARK   74  A    between atoms: _177  and  _179
REMARK   75  A    between atoms: _179  and  _180
REMARK   76  A    between atoms: _179  and  _182
REMARK   77  A    between atoms: _182  and  _183
REMARK   78  A    between atoms: _186  and  _188
REMARK   79  A    between atoms: _188  and  _189
REMARK   80  A    between atoms: _188  and  _191
REMARK   81  A    between atoms: _191  and  _192
REMARK   82  A    between atoms: _195  and  _197
REMARK   83  A    between atoms: _197  and  _198
REMARK   84  A    between atoms: _197  and  _200
REMARK   85  A    between atoms: _200  and  _201
REMARK   86  A    between atoms: _204  and  _206
REMARK   87  A    between atoms: _206  and  _207
REMARK   88  A    between atoms: _206  and  _209
REMARK   89  A    between atoms: _209  and  _210
REMARK   90  A    between atoms: _217  and  _218
REMARK   91  A    between atoms: _223  and  _225
REMARK   92  A    between atoms: _225  and  _226
REMARK   93  A    between atoms: _225  and  _228
REMARK   94  A    between atoms: _228  and  _229
REMARK   95  A    between atoms: _234  and  _236
REMARK   96  A    between atoms: _236  and  _237
REMARK   97  A    between atoms: _236  and  _239
REMARK   98  A    between atoms: _239  and  _240
REMARK   99  A    between atoms: _242  and  _244
REMARK  100  A    between atoms: _244  and  _245
REMARK  101  A    between atoms: _244  and  _247
REMARK  102  A    between atoms: _247  and  _248
REMARK  103  A    between atoms: _248  and  _249
REMARK  104  A    between atoms: _254  and  _256
REMARK  105  A    between atoms: _256  and  _257
REMARK  106  A    between atoms: _256  and  _259
REMARK  107  A    between atoms: _259  and  _260
REMARK  108  A    between atoms: _262  and  _264
REMARK  109  A    between atoms: _264  and  _265
REMARK  110  A    between atoms: _267  and  _269
REMARK  111  A    between atoms: _269  and  _270
REMARK  112  A    between atoms: _269  and  _272
REMARK  113  A    between atoms: _272  and  _273
REMARK  114  A    between atoms: _276  and  _278
REMARK  115  A    between atoms: _278  and  _279
REMARK  116  A    between atoms: _278  and  _281
REMARK  117  A    between atoms: _281  and  _282
REMARK  118  A    between atoms: _287  and  _289
REMARK  119  A    between atoms: _289  and  _290
REMARK  120  A    between atoms: _289  and  _292
REMARK  121  A    between atoms: _292  and  _293
REMARK  122  A    between atoms: _296  and  _298
REMARK  123  A    between atoms: _298  and  _299
REMARK  124  A    between atoms: _302  and  _304
REMARK  125  A    between atoms: _304  and  _305
REMARK  126  A    between atoms: _304  and  _307
REMARK  127  A    between atoms: _307  and  _308
REMARK  128  A    between atoms: _313  and  _314
REMARK  129  A    between atoms: _316  and  _318
REMARK  130  A    between atoms: _318  and  _319
REMARK  131  A    between atoms: _318  and  _321
REMARK  132  A    between atoms: _321  and  _322
REMARK  133  A    between atoms: _327  and  _328
REMARK  134  A    between atoms: _330  and  _332
REMARK  135  A    between atoms: _332  and  _333
REMARK  136  A    between atoms: _332  and  _335
REMARK  137  A    between atoms: _335  and  _336
REMARK  138  A    between atoms: _336  and  _337
REMARK  139  A    between atoms: _342  and  _344
REMARK  140  A    between atoms: _344  and  _345
REMARK  141  A    between atoms: _344  and  _347
REMARK  142  A    between atoms: _350  and  _352
REMARK  143  A    between atoms: _352  and  _353
REMARK  144  A    between atoms: _352  and  _355
REMARK  145  A    between atoms: _358  and  _360
REMARK  146  A    between atoms: _360  and  _361
REMARK  147  A    between atoms: _360  and  _363
REMARK  148  A    between atoms: _363  and  _364
REMARK  149  A    between atoms: _364  and  _365
REMARK  150  A    between atoms: _365  and  _366
REMARK  151  A    between atoms: _375  and  _377
REMARK  152  A    between atoms: _377  and  _378
REMARK  153  A    between atoms: _381  and  _383
REMARK  154  A    between atoms: _383  and  _384
REMARK  155  A    between atoms: _383  and  _386
REMARK  156  A    between atoms: _386  and  _387
REMARK  157  A    between atoms: _389  and  _391
REMARK  158  A    between atoms: _391  and  _392
REMARK  159  A    between atoms: _391  and  _394
REMARK  160  A    between atoms: _394  and  _395
REMARK  161  A    between atoms: _400  and  _402
REMARK  162  A    between atoms: _402  and  _403
REMARK  163  A    between atoms: _402  and  _405
REMARK  164  A    between atoms: _405  and  _406
REMARK  165  A    between atoms: _416  and  _418
REMARK  166  A    between atoms: _418  and  _419
REMARK  167  A    between atoms: _418  and  _421
REMARK  168  A    between atoms: _421  and  _422
REMARK  169  A    between atoms: _425  and  _427
REMARK  170  A    between atoms: _427  and  _428
REMARK  171  A    between atoms: _427  and  _430
REMARK  172  A    between atoms: _430  and  _431
REMARK  173  A    between atoms: _436  and  _437
REMARK  174  A    between atoms: _439  and  _441
REMARK  175  A    between atoms: _441  and  _442
REMARK  176  A    between atoms: _444  and  _446
REMARK  177  A    between atoms: _446  and  _447
REMARK  178  A    between atoms: _446  and  _449
REMARK  179  A    between atoms: _449  and  _450
REMARK  180  A    between atoms: _460  and  _462
REMARK  181  A    between atoms: _462  and  _463
REMARK  182  A    between atoms: _462  and  _465
REMARK  183  A    between atoms: _465  and  _466
REMARK  184  A    between atoms: _468  and  _470
REMARK  185  A    between atoms: _470  and  _471
REMARK  186  A    between atoms: _473  and  _475
REMARK  187  A    between atoms: _475  and  _476
REMARK  188  A    between atoms: _475  and  _478
REMARK  189  A    between atoms: _478  and  _479
REMARK  190  A    between atoms: _482  and  _484
REMARK  191  A    between atoms: _484  and  _485
REMARK  192  A    between atoms: _484  and  _487
REMARK  193  A    between atoms: _487  and  _488
REMARK  194  A    between atoms: _493  and  _495
REMARK  195  A    between atoms: _495  and  _496
REMARK  196  A    between atoms: _495  and  _498
REMARK  197  A    between atoms: _498  and  _499
REMARK  198  A    between atoms: _504  and  _506
REMARK  199  A    between atoms: _506  and  _507
REMARK  200  A    between atoms: _506  and  _509
REMARK  201  A    between atoms: _509  and  _510
REMARK  202  A    between atoms: _517  and  _518
REMARK  203  A    between atoms: _523  and  _525
REMARK  204  A    between atoms: _525  and  _526
REMARK  205  A    between atoms: _525  and  _528
REMARK  206  A    between atoms: _528  and  _529
REMARK  207  A    between atoms: _532  and  _534
REMARK  208  A    between atoms: _534  and  _535
REMARK  209  A    between atoms: _534  and  _537
REMARK  210  A    between atoms: _537  and  _538
REMARK  211  A    between atoms: _540  and  _542
REMARK  212  A    between atoms: _542  and  _543
REMARK  213  A    between atoms: _542  and  _545
REMARK  214  A    between atoms: _545  and  _546
REMARK  215  A    between atoms: _551  and  _552
REMARK  216  A    between atoms: _554  and  _556
REMARK  217  A    between atoms: _556  and  _557
REMARK  218  A    between atoms: _556  and  _559
REMARK  219  A    between atoms: _559  and  _560
REMARK  220  A    between atoms: _562  and  _564
REMARK  221  A    between atoms: _564  and  _565
REMARK  222  A    between atoms: _564  and  _567
REMARK  223  A    between atoms: _567  and  _568
REMARK  224  A    between atoms: _571  and  _573
REMARK  225  A    between atoms: _573  and  _574
REMARK  226  A    between atoms: _573  and  _576
REMARK  227  A    between atoms: _576  and  _577
REMARK  228  A    between atoms: _582  and  _584
REMARK  229  A    between atoms: _584  and  _585
REMARK  230  A    between atoms: _584  and  _587
REMARK  231  A    between atoms: _587  and  _588
REMARK  232  A    between atoms: _594  and  _596
REMARK  233  A    between atoms: _596  and  _597
REMARK  234  A    between atoms: _601  and  _602
REMARK  235  A    between atoms: _607  and  _609
REMARK  236  A    between atoms: _609  and  _610
REMARK  237  A    between atoms: _609  and  _612
REMARK  238  A    between atoms: _612  and  _613
REMARK  239  A    between atoms: _618  and  _619
REMARK  240  A    between atoms: _621  and  _623
REMARK  241  A    between atoms: _623  and  _624
REMARK  242  A    between atoms: _623  and  _626
REMARK  243  A    between atoms: _626  and  _627
REMARK  244  A    between atoms: _627  and  _628
REMARK  245  A    between atoms: _628  and  _629
REMARK  246  A    between atoms: _629  and  _630
REMARK  247  A    between atoms: _634  and  _636
REMARK  248  A    between atoms: _636  and  _637
REMARK  249  A    between atoms: _636  and  _639
REMARK  250  A    between atoms: _639  and  _640
REMARK  251  A    between atoms: _640  and  _641
REMARK  252  A    between atoms: _646  and  _648
REMARK  253  A    between atoms: _648  and  _649
REMARK  254  A    between atoms: _648  and  _651
REMARK  255  A    between atoms: _651  and  _652
REMARK  256  A    between atoms: _655  and  _656
REMARK  257  A    between atoms: _661  and  _663
REMARK  258  A    between atoms: _663  and  _664
REMARK  259  A    between atoms: _663  and  _666
REMARK  260  A    between atoms: _666  and  _667
REMARK  261  A    between atoms: _673  and  _675
REMARK  262  A    between atoms: _675  and  _676
REMARK  263  A    between atoms: _678  and  _680
REMARK  264  A    between atoms: _680  and  _681
REMARK  265  A    between atoms: _680  and  _683
REMARK  266  A    between atoms: _683  and  _684
REMARK  267  A    between atoms: _689  and  _690
REMARK  268  A    between atoms: _692  and  _694
REMARK  269  A    between atoms: _694  and  _695
REMARK  270  A    between atoms: _694  and  _697
REMARK  271  A    between atoms: _697  and  _698
REMARK  272  A    between atoms: _701  and  _703
REMARK  273  A    between atoms: _703  and  _704
REMARK  274  A    between atoms: _703  and  _706
REMARK  275  A    between atoms: _706  and  _707
REMARK  276  A    between atoms: _712  and  _713
REMARK                            x       y       z     vdW  Elec       q    Type
REMARK                         _______ _______ _______ _____ _____    ______ ____
ROOT
ATOM      1  O   HOH     1      25.353 -15.620 -13.504  0.00  0.00    +0.000 OA
ENDROOT
TORSDOF 0
REMARK  Name = ../refined-set-2016/3m8u/3m8u_pocket.pdb
REMARK  276 active torsions:
REMARK  status: ('A' for Active; 'I' for Inactive)
REMARK    1  A    between atoms: _1  and  _3
REMARK    2  A    between atoms: _3  and  _4
REMARK    3  A    between atoms: _3  and  _6
REMARK    4  A    between atoms: _6  and  _7
REMARK    5  A    between atoms: _12  and  _14
REMARK    6  A    between atoms: _14  and  _15
REMARK    7  A    between atoms: _14  and  _17
REMARK    8  A    between atoms: _20  and  _22
REMARK    9  A    between atoms: _22  and  _23
REMARK   10  A    between atoms: _22  and  _25
REMARK   11  A    between atoms: _25  and  _26
REMARK   12  A    between atoms: _28  and  _30
REMARK   13  A    between atoms: _30  and  _31
REMARK   14  A    between atoms: _30  and  _33
REMARK   15  A    between atoms: _33  and  _34
REMARK   16  A    between atoms: _34  and  _35
REMARK   17  A    between atoms: _35  and  _36
REMARK   18  A    between atoms: _45  and  _47
REMARK   19  A    between atoms: _47  and  _48
REMARK   20  A    between atoms: _47  and  _50
REMARK   21  A    between atoms: _50  and  _51
REMARK   22  A    between atoms: _54  and  _56
REMARK   23  A    between atoms: _56  and  _57
REMARK   24  A    between atoms: _56  and  _59
REMARK   25  A    between atoms: _62  and  _64
REMARK   26  A    between atoms: _64  and  _65
REMARK   27  A    between atoms: _64  and  _67
REMARK   28  A    between atoms: _67  and  _68
REMARK   29  A    between atoms: _68  and  _69
REMARK   30  A    between atoms: _71  and  _73
REMARK   31  A    between atoms: _73  and  _74
REMARK   32  A    between atoms: _73  and  _76
REMARK   33  A    between atoms: _76  and  _77
REMARK   34  A    between atoms: _80  and  _82
REMARK   35  A    between atoms: _82  and  _83
REMARK   36  A    between atoms: _85  and  _87
REMARK   37  A    between atoms: _87  and  _88
REMARK   38  A    between atoms: _87  and  _90
REMARK   39  A    between atoms: _90  and  _91
REMARK   40  A    between atoms: _94  and  _96
REMARK   41  A    between atoms: _96  and  _97
REMARK   42  A    between atoms: _96  and  _99
REMARK   43  A    between atoms: _99  and  _100
REMARK   44  A    between atoms: _102  and  _104
REMARK   45  A    between atoms: _104  and  _105
REMARK   46  A    between atoms: _104  and  _107
REMARK   47  A    between atoms: _107  and  _108
REMARK   48  A    between atoms: _113  and  _114
REMARK   49  A    between atoms: _116  and  _118
REMARK   50  A    between atoms: _118  and  _119
REMARK   51  A    between atoms: _118  and  _121
REMARK   52  A    between atoms: _121  and  _122
REMARK   53  A    between atoms: _127  and  _129
REMARK   54  A    between atoms: _129  and  _130
REMARK   55  A    between atoms: _133  and  _135
REMARK   56  A    between atoms: _135  and  _136
REMARK   57  A    between atoms: _135  and  _138
REMARK   58  A    between atoms: _138  and  _139
REMARK   59  A    between atoms: _139  and  _140
REMARK   60  A    between atoms: _145  and  _147
REMARK   61  A    between atoms: _147  and  _148
REMARK   62  A    between atoms: _147  and  _150
REMARK   63  A    between atoms: _150  and  _151
REMARK   64  A    between atoms: _156  and  _157
REMARK   65  A    between atoms: _159  and  _161
REMARK   66  A    between atoms: _161  and  _162
REMARK   67  A    between atoms: _161  and  _164
REMARK   68  A    between atoms: _164  and  _165
REMARK   69  A    between atoms: _165  and  _166
REMARK   70  A    between atoms: _168  and  _170
REMARK   71  A    between atoms: _170  and  _171
REMARK   72  A    between atoms: _170  and  _173
REMARK   73  A    between atoms: _173  and  _174
REMARK   74  A    between atoms: _177  and  _179
REMARK   75  A    between atoms: _179  and  _180
REMARK   76  A    between atoms: _179  and  _182
REMARK   77  A    between atoms: _182  and  _183
REMARK   78  A    between atoms: _186  and  _188
REMARK   79  A    between atoms: _188  and  _189
REMARK   80  A    between atoms: _188  and  _191
REMARK   81  A    between atoms: _191  and  _192
REMARK   82  A    between atoms: _195  and  _197
REMARK   83  A    between atoms: _197  and  _198
REMARK   84  A    between atoms: _197  and  _200
REMARK   85  A    between atoms: _200  and  _201
REMARK   86  A    between atoms: _204  and  _206
REMARK   87  A    between atoms: _206  and  _207
REMARK   88  A    between atoms: _206  and  _209
REMARK   89  A    between atoms: _209  and  _210
REMARK   90  A    between atoms: _217  and  _218
REMARK   91  A    between atoms: _223  and  _225
REMARK   92  A    between atoms: _225  and  _226
REMARK   93  A    between atoms: _225  and  _228
REMARK   94  A    between atoms: _228  and  _229
REMARK   95  A    between atoms: _234  and  _236
REMARK   96  A    between atoms: _236  and  _237
REMARK   97  A    between atoms: _236  and  _239
REMARK   98  A    between atoms: _239  and  _240
REMARK   99  A    between atoms: _242  and  _244
REMARK  100  A    between atoms: _244  and  _245
REMARK  101  A    between atoms: _244  and  _247
REMARK  102  A    between atoms: _247  and  _248
REMARK  103  A    between atoms: _248  and  _249
REMARK  104  A    between atoms: _254  and  _256
REMARK  105  A    between atoms: _256  and  _257
REMARK  106  A    between atoms: _256  and  _259
REMARK  107  A    between atoms: _259  and  _260
REMARK  108  A    between atoms: _262  and  _264
REMARK  109  A    between atoms: _264  and  _265
REMARK  110  A    between atoms: _267  and  _269
REMARK  111  A    between atoms: _269  and  _270
REMARK  112  A    between atoms: _269  and  _272
REMARK  113  A    between atoms: _272  and  _273
REMARK  114  A    between atoms: _276  and  _278
REMARK  115  A    between atoms: _278  and  _279
REMARK  116  A    between atoms: _278  and  _281
REMARK  117  A    between atoms: _281  and  _282
REMARK  118  A    between atoms: _287  and  _289
REMARK  119  A    between atoms: _289  and  _290
REMARK  120  A    between atoms: _289  and  _292
REMARK  121  A    between atoms: _292  and  _293
REMARK  122  A    between atoms: _296  and  _298
REMARK  123  A    between atoms: _298  and  _299
REMARK  124  A    between atoms: _302  and  _304
REMARK  125  A    between atoms: _304  and  _305
REMARK  126  A    between atoms: _304  and  _307
REMARK  127  A    between atoms: _307  and  _308
REMARK  128  A    between atoms: _313  and  _314
REMARK  129  A    between atoms: _316  and  _318
REMARK  130  A    between atoms: _318  and  _319
REMARK  131  A    between atoms: _318  and  _321
REMARK  132  A    between atoms: _321  and  _322
REMARK  133  A    between atoms: _327  and  _328
REMARK  134  A    between atoms: _330  and  _332
REMARK  135  A    between atoms: _332  and  _333
REMARK  136  A    between atoms: _332  and  _335
REMARK  137  A    between atoms: _335  and  _336
REMARK  138  A    between atoms: _336  and  _337
REMARK  139  A    between atoms: _342  and  _344
REMARK  140  A    between atoms: _344  and  _345
REMARK  141  A    between atoms: _344  and  _347
REMARK  142  A    between atoms: _350  and  _352
REMARK  143  A    between atoms: _352  and  _353
REMARK  144  A    between atoms: _352  and  _355
REMARK  145  A    between atoms: _358  and  _360
REMARK  146  A    between atoms: _360  and  _361
REMARK  147  A    between atoms: _360  and  _363
REMARK  148  A    between atoms: _363  and  _364
REMARK  149  A    between atoms: _364  and  _365
REMARK  150  A    between atoms: _365  and  _366
REMARK  151  A    between atoms: _375  and  _377
REMARK  152  A    between atoms: _377  and  _378
REMARK  153  A    between atoms: _381  and  _383
REMARK  154  A    between atoms: _383  and  _384
REMARK  155  A    between atoms: _383  and  _386
REMARK  156  A    between atoms: _386  and  _387
REMARK  157  A    between atoms: _389  and  _391
REMARK  158  A    between atoms: _391  and  _392
REMARK  159  A    between atoms: _391  and  _394
REMARK  160  A    between atoms: _394  and  _395
REMARK  161  A    between atoms: _400  and  _402
REMARK  162  A    between atoms: _402  and  _403
REMARK  163  A    between atoms: _402  and  _405
REMARK  164  A    between atoms: _405  and  _406
REMARK  165  A    between atoms: _416  and  _418
REMARK  166  A    between atoms: _418  and  _419
REMARK  167  A    between atoms: _418  and  _421
REMARK  168  A    between atoms: _421  and  _422
REMARK  169  A    between atoms: _425  and  _427
REMARK  170  A    between atoms: _427  and  _428
REMARK  171  A    between atoms: _427  and  _430
REMARK  172  A    between atoms: _430  and  _431
REMARK  173  A    between atoms: _436  and  _437
REMARK  174  A    between atoms: _439  and  _441
REMARK  175  A    between atoms: _441  and  _442
REMARK  176  A    between atoms: _444  and  _446
REMARK  177  A    between atoms: _446  and  _447
REMARK  178  A    between atoms: _446  and  _449
REMARK  179  A    between atoms: _449  and  _450
REMARK  180  A    between atoms: _460  and  _462
REMARK  181  A    between atoms: _462  and  _463
REMARK  182  A    between atoms: _462  and  _465
REMARK  183  A    between atoms: _465  and  _466
REMARK  184  A    between atoms: _468  and  _470
REMARK  185  A    between atoms: _470  and  _471
REMARK  186  A    between atoms: _473  and  _475
REMARK  187  A    between atoms: _475  and  _476
REMARK  188  A    between atoms: _475  and  _478
REMARK  189  A    between atoms: _478  and  _479
REMARK  190  A    between atoms: _482  and  _484
REMARK  191  A    between atoms: _484  and  _485
REMARK  192  A    between atoms: _484  and  _487
REMARK  193  A    between atoms: _487  and  _488
REMARK  194  A    between atoms: _493  and  _495
REMARK  195  A    between atoms: _495  and  _496
REMARK  196  A    between atoms: _495  and  _498
REMARK  197  A    between atoms: _498  and  _499
REMARK  198  A    between atoms: _504  and  _506
REMARK  199  A    between atoms: _506  and  _507
REMARK  200  A    between atoms: _506  and  _509
REMARK  201  A    between atoms: _509  and  _510
REMARK  202  A    between atoms: _517  and  _518
REMARK  203  A    between atoms: _523  and  _525
REMARK  204  A    between atoms: _525  and  _526
REMARK  205  A    between atoms: _525  and  _528
REMARK  206  A    between atoms: _528  and  _529
REMARK  207  A    between atoms: _532  and  _534
REMARK  208  A    between atoms: _534  and  _535
REMARK  209  A    between atoms: _534  and  _537
REMARK  210  A    between atoms: _537  and  _538
REMARK  211  A    between atoms: _540  and  _542
REMARK  212  A    between atoms: _542  and  _543
REMARK  213  A    between atoms: _542  and  _545
REMARK  214  A    between atoms: _545  and  _546
REMARK  215  A    between atoms: _551  and  _552
REMARK  216  A    between atoms: _554  and  _556
REMARK  217  A    between atoms: _556  and  _557
REMARK  218  A    between atoms: _556  and  _559
REMARK  219  A    between atoms: _559  and  _560
REMARK  220  A    between atoms: _562  and  _564
REMARK  221  A    between atoms: _564  and  _565
REMARK  222  A    between atoms: _564  and  _567
REMARK  223  A    between atoms: _567  and  _568
REMARK  224  A    between atoms: _571  and  _573
REMARK  225  A    between atoms: _573  and  _574
REMARK  226  A    between atoms: _573  and  _576
REMARK  227  A    between atoms: _576  and  _577
REMARK  228  A    between atoms: _582  and  _584
REMARK  229  A    between atoms: _584  and  _585
REMARK  230  A    between atoms: _584  and  _587
REMARK  231  A    between atoms: _587  and  _588
REMARK  232  A    between atoms: _594  and  _596
REMARK  233  A    between atoms: _596  and  _597
REMARK  234  A    between atoms: _601  and  _602
REMARK  235  A    between atoms: _607  and  _609
REMARK  236  A    between atoms: _609  and  _610
REMARK  237  A    between atoms: _609  and  _612
REMARK  238  A    between atoms: _612  and  _613
REMARK  239  A    between atoms: _618  and  _619
REMARK  240  A    between atoms: _621  and  _623
REMARK  241  A    between atoms: _623  and  _624
REMARK  242  A    between atoms: _623  and  _626
REMARK  243  A    between atoms: _626  and  _627
REMARK  244  A    between atoms: _627  and  _628
REMARK  245  A    between atoms: _628  and  _629
REMARK  246  A    between atoms: _629  and  _630
REMARK  247  A    between atoms: _634  and  _636
REMARK  248  A    between atoms: _636  and  _637
REMARK  249  A    between atoms: _636  and  _639
REMARK  250  A    between atoms: _639  and  _640
REMARK  251  A    between atoms: _640  and  _641
REMARK  252  A    between atoms: _646  and  _648
REMARK  253  A    between atoms: _648  and  _649
REMARK  254  A    between atoms: _648  and  _651
REMARK  255  A    between atoms: _651  and  _652
REMARK  256  A    between atoms: _655  and  _656
REMARK  257  A    between atoms: _661  and  _663
REMARK  258  A    between atoms: _663  and  _664
REMARK  259  A    between atoms: _663  and  _666
REMARK  260  A    between atoms: _666  and  _667
REMARK  261  A    between atoms: _673  and  _675
REMARK  262  A    between atoms: _675  and  _676
REMARK  263  A    between atoms: _678  and  _680
REMARK  264  A    between atoms: _680  and  _681
REMARK  265  A    between atoms: _680  and  _683
REMARK  266  A    between atoms: _683  and  _684
REMARK  267  A    between atoms: _689  and  _690
REMARK  268  A    between atoms: _692  and  _694
REMARK  269  A    between atoms: _694  and  _695
REMARK  270  A    between atoms: _694  and  _697
REMARK  271  A    between atoms: _697  and  _698
REMARK  272  A    between atoms: _701  and  _703
REMARK  273  A    between atoms: _703  and  _704
REMARK  274  A    between atoms: _703  and  _706
REMARK  275  A    between atoms: _706  and  _707
REMARK  276  A    between atoms: _712  and  _713
REMARK                            x       y       z     vdW  Elec       q    Type
REMARK                         _______ _______ _______ _____ _____    ______ ____
ROOT
ATOM      1  O   HOH     1      25.200 -16.477 -11.515  0.00  0.00    +0.000 OA
ENDROOT
TORSDOF 0
REMARK  Name = ../refined-set-2016/3m8u/3m8u_pocket.pdb
REMARK  276 active torsions:
REMARK  status: ('A' for Active; 'I' for Inactive)
REMARK    1  A    between atoms: _1  and  _3
REMARK    2  A    between atoms: _3  and  _4
REMARK    3  A    between atoms: _3  and  _6
REMARK    4  A    between atoms: _6  and  _7
REMARK    5  A    between atoms: _12  and  _14
REMARK    6  A    between atoms: _14  and  _15
REMARK    7  A    between atoms: _14  and  _17
REMARK    8  A    between atoms: _20  and  _22
REMARK    9  A    between atoms: _22  and  _23
REMARK   10  A    between atoms: _22  and  _25
REMARK   11  A    between atoms: _25  and  _26
REMARK   12  A    between atoms: _28  and  _30
REMARK   13  A    between atoms: _30  and  _31
REMARK   14  A    between atoms: _30  and  _33
REMARK   15  A    between atoms: _33  and  _34
REMARK   16  A    between atoms: _34  and  _35
REMARK   17  A    between atoms: _35  and  _36
REMARK   18  A    between atoms: _45  and  _47
REMARK   19  A    between atoms: _47  and  _48
REMARK   20  A    between atoms: _47  and  _50
REMARK   21  A    between atoms: _50  and  _51
REMARK   22  A    between atoms: _54  and  _56
REMARK   23  A    between atoms: _56  and  _57
REMARK   24  A    between atoms: _56  and  _59
REMARK   25  A    between atoms: _62  and  _64
REMARK   26  A    between atoms: _64  and  _65
REMARK   27  A    between atoms: _64  and  _67
REMARK   28  A    between atoms: _67  and  _68
REMARK   29  A    between atoms: _68  and  _69
REMARK   30  A    between atoms: _71  and  _73
REMARK   31  A    between atoms: _73  and  _74
REMARK   32  A    between atoms: _73  and  _76
REMARK   33  A    between atoms: _76  and  _77
REMARK   34  A    between atoms: _80  and  _82
REMARK   35  A    between atoms: _82  and  _83
REMARK   36  A    between atoms: _85  and  _87
REMARK   37  A    between atoms: _87  and  _88
REMARK   38  A    between atoms: _87  and  _90
REMARK   39  A    between atoms: _90  and  _91
REMARK   40  A    between atoms: _94  and  _96
REMARK   41  A    between atoms: _96  and  _97
REMARK   42  A    between atoms: _96  and  _99
REMARK   43  A    between atoms: _99  and  _100
REMARK   44  A    between atoms: _102  and  _104
REMARK   45  A    between atoms: _104  and  _105
REMARK   46  A    between atoms: _104  and  _107
REMARK   47  A    between atoms: _107  and  _108
REMARK   48  A    between atoms: _113  and  _114
REMARK   49  A    between atoms: _116  and  _118
REMARK   50  A    between atoms: _118  and  _119
REMARK   51  A    between atoms: _118  and  _121
REMARK   52  A    between atoms: _121  and  _122
REMARK   53  A    between atoms: _127  and  _129
REMARK   54  A    between atoms: _129  and  _130
REMARK   55  A    between atoms: _133  and  _135
REMARK   56  A    between atoms: _135  and  _136
REMARK   57  A    between atoms: _135  and  _138
REMARK   58  A    between atoms: _138  and  _139
REMARK   59  A    between atoms: _139  and  _140
REMARK   60  A    between atoms: _145  and  _147
REMARK   61  A    between atoms: _147  and  _148
REMARK   62  A    between atoms: _147  and  _150
REMARK   63  A    between atoms: _150  and  _151
REMARK   64  A    between atoms: _156  and  _157
REMARK   65  A    between atoms: _159  and  _161
REMARK   66  A    between atoms: _161  and  _162
REMARK   67  A    between atoms: _161  and  _164
REMARK   68  A    between atoms: _164  and  _165
REMARK   69  A    between atoms: _165  and  _166
REMARK   70  A    between atoms: _168  and  _170
REMARK   71  A    between atoms: _170  and  _171
REMARK   72  A    between atoms: _170  and  _173
REMARK   73  A    between atoms: _173  and  _174
REMARK   74  A    between atoms: _177  and  _179
REMARK   75  A    between atoms: _179  and  _180
REMARK   76  A    between atoms: _179  and  _182
REMARK   77  A    between atoms: _182  and  _183
REMARK   78  A    between atoms: _186  and  _188
REMARK   79  A    between atoms: _188  and  _189
REMARK   80  A    between atoms: _188  and  _191
REMARK   81  A    between atoms: _191  and  _192
REMARK   82  A    between atoms: _195  and  _197
REMARK   83  A    between atoms: _197  and  _198
REMARK   84  A    between atoms: _197  and  _200
REMARK   85  A    between atoms: _200  and  _201
REMARK   86  A    between atoms: _204  and  _206
REMARK   87  A    between atoms: _206  and  _207
REMARK   88  A    between atoms: _206  and  _209
REMARK   89  A    between atoms: _209  and  _210
REMARK   90  A    between atoms: _217  and  _218
REMARK   91  A    between atoms: _223  and  _225
REMARK   92  A    between atoms: _225  and  _226
REMARK   93  A    between atoms: _225  and  _228
REMARK   94  A    between atoms: _228  and  _229
REMARK   95  A    between atoms: _234  and  _236
REMARK   96  A    between atoms: _236  and  _237
REMARK   97  A    between atoms: _236  and  _239
REMARK   98  A    between atoms: _239  and  _240
REMARK   99  A    between atoms: _242  and  _244
REMARK  100  A    between atoms: _244  and  _245
REMARK  101  A    between atoms: _244  and  _247
REMARK  102  A    between atoms: _247  and  _248
REMARK  103  A    between atoms: _248  and  _249
REMARK  104  A    between atoms: _254  and  _256
REMARK  105  A    between atoms: _256  and  _257
REMARK  106  A    between atoms: _256  and  _259
REMARK  107  A    between atoms: _259  and  _260
REMARK  108  A    between atoms: _262  and  _264
REMARK  109  A    between atoms: _264  and  _265
REMARK  110  A    between atoms: _267  and  _269
REMARK  111  A    between atoms: _269  and  _270
REMARK  112  A    between atoms: _269  and  _272
REMARK  113  A    between atoms: _272  and  _273
REMARK  114  A    between atoms: _276  and  _278
REMARK  115  A    between atoms: _278  and  _279
REMARK  116  A    between atoms: _278  and  _281
REMARK  117  A    between atoms: _281  and  _282
REMARK  118  A    between atoms: _287  and  _289
REMARK  119  A    between atoms: _289  and  _290
REMARK  120  A    between atoms: _289  and  _292
REMARK  121  A    between atoms: _292  and  _293
REMARK  122  A    between atoms: _296  and  _298
REMARK  123  A    between atoms: _298  and  _299
REMARK  124  A    between atoms: _302  and  _304
REMARK  125  A    between atoms: _304  and  _305
REMARK  126  A    between atoms: _304  and  _307
REMARK  127  A    between atoms: _307  and  _308
REMARK  128  A    between atoms: _313  and  _314
REMARK  129  A    between atoms: _316  and  _318
REMARK  130  A    between atoms: _318  and  _319
REMARK  131  A    between atoms: _318  and  _321
REMARK  132  A    between atoms: _321  and  _322
REMARK  133  A    between atoms: _327  and  _328
REMARK  134  A    between atoms: _330  and  _332
REMARK  135  A    between atoms: _332  and  _333
REMARK  136  A    between atoms: _332  and  _335
REMARK  137  A    between atoms: _335  and  _336
REMARK  138  A    between atoms: _336  and  _337
REMARK  139  A    between atoms: _342  and  _344
REMARK  140  A    between atoms: _344  and  _345
REMARK  141  A    between atoms: _344  and  _347
REMARK  142  A    between atoms: _350  and  _352
REMARK  143  A    between atoms: _352  and  _353
REMARK  144  A    between atoms: _352  and  _355
REMARK  145  A    between atoms: _358  and  _360
REMARK  146  A    between atoms: _360  and  _361
REMARK  147  A    between atoms: _360  and  _363
REMARK  148  A    between atoms: _363  and  _364
REMARK  149  A    between atoms: _364  and  _365
REMARK  150  A    between atoms: _365  and  _366
REMARK  151  A    between atoms: _375  and  _377
REMARK  152  A    between atoms: _377  and  _378
REMARK  153  A    between atoms: _381  and  _383
REMARK  154  A    between atoms: _383  and  _384
REMARK  155  A    between atoms: _383  and  _386
REMARK  156  A    between atoms: _386  and  _387
REMARK  157  A    between atoms: _389  and  _391
REMARK  158  A    between atoms: _391  and  _392
REMARK  159  A    between atoms: _391  and  _394
REMARK  160  A    between atoms: _394  and  _395
REMARK  161  A    between atoms: _400  and  _402
REMARK  162  A    between atoms: _402  and  _403
REMARK  163  A    between atoms: _402  and  _405
REMARK  164  A    between atoms: _405  and  _406
REMARK  165  A    between atoms: _416  and  _418
REMARK  166  A    between atoms: _418  and  _419
REMARK  167  A    between atoms: _418  and  _421
REMARK  168  A    between atoms: _421  and  _422
REMARK  169  A    between atoms: _425  and  _427
REMARK  170  A    between atoms: _427  and  _428
REMARK  171  A    between atoms: _427  and  _430
REMARK  172  A    between atoms: _430  and  _431
REMARK  173  A    between atoms: _436  and  _437
REMARK  174  A    between atoms: _439  and  _441
REMARK  175  A    between atoms: _441  and  _442
REMARK  176  A    between atoms: _444  and  _446
REMARK  177  A    between atoms: _446  and  _447
REMARK  178  A    between atoms: _446  and  _449
REMARK  179  A    between atoms: _449  and  _450
REMARK  180  A    between atoms: _460  and  _462
REMARK  181  A    between atoms: _462  and  _463
REMARK  182  A    between atoms: _462  and  _465
REMARK  183  A    between atoms: _465  and  _466
REMARK  184  A    between atoms: _468  and  _470
REMARK  185  A    between atoms: _470  and  _471
REMARK  186  A    between atoms: _473  and  _475
REMARK  187  A    between atoms: _475  and  _476
REMARK  188  A    between atoms: _475  and  _478
REMARK  189  A    between atoms: _478  and  _479
REMARK  190  A    between atoms: _482  and  _484
REMARK  191  A    between atoms: _484  and  _485
REMARK  192  A    between atoms: _484  and  _487
REMARK  193  A    between atoms: _487  and  _488
REMARK  194  A    between atoms: _493  and  _495
REMARK  195  A    between atoms: _495  and  _496
REMARK  196  A    between atoms: _495  and  _498
REMARK  197  A    between atoms: _498  and  _499
REMARK  198  A    between atoms: _504  and  _506
REMARK  199  A    between atoms: _506  and  _507
REMARK  200  A    between atoms: _506  and  _509
REMARK  201  A    between atoms: _509  and  _510
REMARK  202  A    between atoms: _517  and  _518
REMARK  203  A    between atoms: _523  and  _525
REMARK  204  A    between atoms: _525  and  _526
REMARK  205  A    between atoms: _525  and  _528
REMARK  206  A    between atoms: _528  and  _529
REMARK  207  A    between atoms: _532  and  _534
REMARK  208  A    between atoms: _534  and  _535
REMARK  209  A    between atoms: _534  and  _537
REMARK  210  A    between atoms: _537  and  _538
REMARK  211  A    between atoms: _540  and  _542
REMARK  212  A    between atoms: _542  and  _543
REMARK  213  A    between atoms: _542  and  _545
REMARK  214  A    between atoms: _545  and  _546
REMARK  215  A    between atoms: _551  and  _552
REMARK  216  A    between atoms: _554  and  _556
REMARK  217  A    between atoms: _556  and  _557
REMARK  218  A    between atoms: _556  and  _559
REMARK  219  A    between atoms: _559  and  _560
REMARK  220  A    between atoms: _562  and  _564
REMARK  221  A    between atoms: _564  and  _565
REMARK  222  A    between atoms: _564  and  _567
REMARK  223  A    between atoms: _567  and  _568
REMARK  224  A    between atoms: _571  and  _573
REMARK  225  A    between atoms: _573  and  _574
REMARK  226  A    between atoms: _573  and  _576
REMARK  227  A    between atoms: _576  and  _577
REMARK  228  A    between atoms: _582  and  _584
REMARK  229  A    between atoms: _584  and  _585
REMARK  230  A    between atoms: _584  and  _587
REMARK  231  A    between atoms: _587  and  _588
REMARK  232  A    between atoms: _594  and  _596
REMARK  233  A    between atoms: _596  and  _597
REMARK  234  A    between atoms: _601  and  _602
REMARK  235  A    between atoms: _607  and  _609
REMARK  236  A    between atoms: _609  and  _610
REMARK  237  A    between atoms: _609  and  _612
REMARK  238  A    between atoms: _612  and  _613
REMARK  239  A    between atoms: _618  and  _619
REMARK  240  A    between atoms: _621  and  _623
REMARK  241  A    between atoms: _623  and  _624
REMARK  242  A    between atoms: _623  and  _626
REMARK  243  A    between atoms: _626  and  _627
REMARK  244  A    between atoms: _627  and  _628
REMARK  245  A    between atoms: _628  and  _629
REMARK  246  A    between atoms: _629  and  _630
REMARK  247  A    between atoms: _634  and  _636
REMARK  248  A    between atoms: _636  and  _637
REMARK  249  A    between atoms: _636  and  _639
REMARK  250  A    between atoms: _639  and  _640
REMARK  251  A    between atoms: _640  and  _641
REMARK  252  A    between atoms: _646  and  _648
REMARK  253  A    between atoms: _648  and  _649
REMARK  254  A    between atoms: _648  and  _651
REMARK  255  A    between atoms: _651  and  _652
REMARK  256  A    between atoms: _655  and  _656
REMARK  257  A    between atoms: _661  and  _663
REMARK  258  A    between atoms: _663  and  _664
REMARK  259  A    between atoms: _663  and  _666
REMARK  260  A    between atoms: _666  and  _667
REMARK  261  A    between atoms: _673  and  _675
REMARK  262  A    between atoms: _675  and  _676
REMARK  263  A    between atoms: _678  and  _680
REMARK  264  A    between atoms: _680  and  _681
REMARK  265  A    between atoms: _680  and  _683
REMARK  266  A    between atoms: _683  and  _684
REMARK  267  A    between atoms: _689  and  _690
REMARK  268  A    between atoms: _692  and  _694
REMARK  269  A    between atoms: _694  and  _695
REMARK  270  A    between atoms: _694  and  _697
REMARK  271  A    between atoms: _697  and  _698
REMARK  272  A    between atoms: _701  and  _703
REMARK  273  A    between atoms: _703  and  _704
REMARK  274  A    between atoms: _703  and  _706
REMARK  275  A    between atoms: _706  and  _707
REMARK  276  A    between atoms: _712  and  _713
REMARK                            x       y       z     vdW  Elec       q    Type
REMARK                         _______ _______ _______ _____ _____    ______ ____
ROOT
ATOM      1  O   HOH     1      11.068 -14.496  -4.903  0.00  0.00    +0.000 OA
ENDROOT
TORSDOF 0
REMARK  Name = ../refined-set-2016/3m8u/3m8u_pocket.pdb
REMARK  276 active torsions:
REMARK  status: ('A' for Active; 'I' for Inactive)
REMARK    1  A    between atoms: _1  and  _3
REMARK    2  A    between atoms: _3  and  _4
REMARK    3  A    between atoms: _3  and  _6
REMARK    4  A    between atoms: _6  and  _7
REMARK    5  A    between atoms: _12  and  _14
REMARK    6  A    between atoms: _14  and  _15
REMARK    7  A    between atoms: _14  and  _17
REMARK    8  A    between atoms: _20  and  _22
REMARK    9  A    between atoms: _22  and  _23
REMARK   10  A    between atoms: _22  and  _25
REMARK   11  A    between atoms: _25  and  _26
REMARK   12  A    between atoms: _28  and  _30
REMARK   13  A    between atoms: _30  and  _31
REMARK   14  A    between atoms: _30  and  _33
REMARK   15  A    between atoms: _33  and  _34
REMARK   16  A    between atoms: _34  and  _35
REMARK   17  A    between atoms: _35  and  _36
REMARK   18  A    between atoms: _45  and  _47
REMARK   19  A    between atoms: _47  and  _48
REMARK   20  A    between atoms: _47  and  _50
REMARK   21  A    between atoms: _50  and  _51
REMARK   22  A    between atoms: _54  and  _56
REMARK   23  A    between atoms: _56  and  _57
REMARK   24  A    between atoms: _56  and  _59
REMARK   25  A    between atoms: _62  and  _64
REMARK   26  A    between atoms: _64  and  _65
REMARK   27  A    between atoms: _64  and  _67
REMARK   28  A    between atoms: _67  and  _68
REMARK   29  A    between atoms: _68  and  _69
REMARK   30  A    between atoms: _71  and  _73
REMARK   31  A    between atoms: _73  and  _74
REMARK   32  A    between atoms: _73  and  _76
REMARK   33  A    between atoms: _76  and  _77
REMARK   34  A    between atoms: _80  and  _82
REMARK   35  A    between atoms: _82  and  _83
REMARK   36  A    between atoms: _85  and  _87
REMARK   37  A    between atoms: _87  and  _88
REMARK   38  A    between atoms: _87  and  _90
REMARK   39  A    between atoms: _90  and  _91
REMARK   40  A    between atoms: _94  and  _96
REMARK   41  A    between atoms: _96  and  _97
REMARK   42  A    between atoms: _96  and  _99
REMARK   43  A    between atoms: _99  and  _100
REMARK   44  A    between atoms: _102  and  _104
REMARK   45  A    between atoms: _104  and  _105
REMARK   46  A    between atoms: _104  and  _107
REMARK   47  A    between atoms: _107  and  _108
REMARK   48  A    between atoms: _113  and  _114
REMARK   49  A    between atoms: _116  and  _118
REMARK   50  A    between atoms: _118  and  _119
REMARK   51  A    between atoms: _118  and  _121
REMARK   52  A    between atoms: _121  and  _122
REMARK   53  A    between atoms: _127  and  _129
REMARK   54  A    between atoms: _129  and  _130
REMARK   55  A    between atoms: _133  and  _135
REMARK   56  A    between atoms: _135  and  _136
REMARK   57  A    between atoms: _135  and  _138
REMARK   58  A    between atoms: _138  and  _139
REMARK   59  A    between atoms: _139  and  _140
REMARK   60  A    between atoms: _145  and  _147
REMARK   61  A    between atoms: _147  and  _148
REMARK   62  A    between atoms: _147  and  _150
REMARK   63  A    between atoms: _150  and  _151
REMARK   64  A    between atoms: _156  and  _157
REMARK   65  A    between atoms: _159  and  _161
REMARK   66  A    between atoms: _161  and  _162
REMARK   67  A    between atoms: _161  and  _164
REMARK   68  A    between atoms: _164  and  _165
REMARK   69  A    between atoms: _165  and  _166
REMARK   70  A    between atoms: _168  and  _170
REMARK   71  A    between atoms: _170  and  _171
REMARK   72  A    between atoms: _170  and  _173
REMARK   73  A    between atoms: _173  and  _174
REMARK   74  A    between atoms: _177  and  _179
REMARK   75  A    between atoms: _179  and  _180
REMARK   76  A    between atoms: _179  and  _182
REMARK   77  A    between atoms: _182  and  _183
REMARK   78  A    between atoms: _186  and  _188
REMARK   79  A    between atoms: _188  and  _189
REMARK   80  A    between atoms: _188  and  _191
REMARK   81  A    between atoms: _191  and  _192
REMARK   82  A    between atoms: _195  and  _197
REMARK   83  A    between atoms: _197  and  _198
REMARK   84  A    between atoms: _197  and  _200
REMARK   85  A    between atoms: _200  and  _201
REMARK   86  A    between atoms: _204  and  _206
REMARK   87  A    between atoms: _206  and  _207
REMARK   88  A    between atoms: _206  and  _209
REMARK   89  A    between atoms: _209  and  _210
REMARK   90  A    between atoms: _217  and  _218
REMARK   91  A    between atoms: _223  and  _225
REMARK   92  A    between atoms: _225  and  _226
REMARK   93  A    between atoms: _225  and  _228
REMARK   94  A    between atoms: _228  and  _229
REMARK   95  A    between atoms: _234  and  _236
REMARK   96  A    between atoms: _236  and  _237
REMARK   97  A    between atoms: _236  and  _239
REMARK   98  A    between atoms: _239  and  _240
REMARK   99  A    between atoms: _242  and  _244
REMARK  100  A    between atoms: _244  and  _245
REMARK  101  A    between atoms: _244  and  _247
REMARK  102  A    between atoms: _247  and  _248
REMARK  103  A    between atoms: _248  and  _249
REMARK  104  A    between atoms: _254  and  _256
REMARK  105  A    between atoms: _256  and  _257
REMARK  106  A    between atoms: _256  and  _259
REMARK  107  A    between atoms: _259  and  _260
REMARK  108  A    between atoms: _262  and  _264
REMARK  109  A    between atoms: _264  and  _265
REMARK  110  A    between atoms: _267  and  _269
REMARK  111  A    between atoms: _269  and  _270
REMARK  112  A    between atoms: _269  and  _272
REMARK  113  A    between atoms: _272  and  _273
REMARK  114  A    between atoms: _276  and  _278
REMARK  115  A    between atoms: _278  and  _279
REMARK  116  A    between atoms: _278  and  _281
REMARK  117  A    between atoms: _281  and  _282
REMARK  118  A    between atoms: _287  and  _289
REMARK  119  A    between atoms: _289  and  _290
REMARK  120  A    between atoms: _289  and  _292
REMARK  121  A    between atoms: _292  and  _293
REMARK  122  A    between atoms: _296  and  _298
REMARK  123  A    between atoms: _298  and  _299
REMARK  124  A    between atoms: _302  and  _304
REMARK  125  A    between atoms: _304  and  _305
REMARK  126  A    between atoms: _304  and  _307
REMARK  127  A    between atoms: _307  and  _308
REMARK  128  A    between atoms: _313  and  _314
REMARK  129  A    between atoms: _316  and  _318
REMARK  130  A    between atoms: _318  and  _319
REMARK  131  A    between atoms: _318  and  _321
REMARK  132  A    between atoms: _321  and  _322
REMARK  133  A    between atoms: _327  and  _328
REMARK  134  A    between atoms: _330  and  _332
REMARK  135  A    between atoms: _332  and  _333
REMARK  136  A    between atoms: _332  and  _335
REMARK  137  A    between atoms: _335  and  _336
REMARK  138  A    between atoms: _336  and  _337
REMARK  139  A    between atoms: _342  and  _344
REMARK  140  A    between atoms: _344  and  _345
REMARK  141  A    between atoms: _344  and  _347
REMARK  142  A    between atoms: _350  and  _352
REMARK  143  A    between atoms: _352  and  _353
REMARK  144  A    between atoms: _352  and  _355
REMARK  145  A    between atoms: _358  and  _360
REMARK  146  A    between atoms: _360  and  _361
REMARK  147  A    between atoms: _360  and  _363
REMARK  148  A    between atoms: _363  and  _364
REMARK  149  A    between atoms: _364  and  _365
REMARK  150  A    between atoms: _365  and  _366
REMARK  151  A    between atoms: _375  and  _377
REMARK  152  A    between atoms: _377  and  _378
REMARK  153  A    between atoms: _381  and  _383
REMARK  154  A    between atoms: _383  and  _384
REMARK  155  A    between atoms: _383  and  _386
REMARK  156  A    between atoms: _386  and  _387
REMARK  157  A    between atoms: _389  and  _391
REMARK  158  A    between atoms: _391  and  _392
REMARK  159  A    between atoms: _391  and  _394
REMARK  160  A    between atoms: _394  and  _395
REMARK  161  A    between atoms: _400  and  _402
REMARK  162  A    between atoms: _402  and  _403
REMARK  163  A    between atoms: _402  and  _405
REMARK  164  A    between atoms: _405  and  _406
REMARK  165  A    between atoms: _416  and  _418
REMARK  166  A    between atoms: _418  and  _419
REMARK  167  A    between atoms: _418  and  _421
REMARK  168  A    between atoms: _421  and  _422
REMARK  169  A    between atoms: _425  and  _427
REMARK  170  A    between atoms: _427  and  _428
REMARK  171  A    between atoms: _427  and  _430
REMARK  172  A    between atoms: _430  and  _431
REMARK  173  A    between atoms: _436  and  _437
REMARK  174  A    between atoms: _439  and  _441
REMARK  175  A    between atoms: _441  and  _442
REMARK  176  A    between atoms: _444  and  _446
REMARK  177  A    between atoms: _446  and  _447
REMARK  178  A    between atoms: _446  and  _449
REMARK  179  A    between atoms: _449  and  _450
REMARK  180  A    between atoms: _460  and  _462
REMARK  181  A    between atoms: _462  and  _463
REMARK  182  A    between atoms: _462  and  _465
REMARK  183  A    between atoms: _465  and  _466
REMARK  184  A    between atoms: _468  and  _470
REMARK  185  A    between atoms: _470  and  _471
REMARK  186  A    between atoms: _473  and  _475
REMARK  187  A    between atoms: _475  and  _476
REMARK  188  A    between atoms: _475  and  _478
REMARK  189  A    between atoms: _478  and  _479
REMARK  190  A    between atoms: _482  and  _484
REMARK  191  A    between atoms: _484  and  _485
REMARK  192  A    between atoms: _484  and  _487
REMARK  193  A    between atoms: _487  and  _488
REMARK  194  A    between atoms: _493  and  _495
REMARK  195  A    between atoms: _495  and  _496
REMARK  196  A    between atoms: _495  and  _498
REMARK  197  A    between atoms: _498  and  _499
REMARK  198  A    between atoms: _504  and  _506
REMARK  199  A    between atoms: _506  and  _507
REMARK  200  A    between atoms: _506  and  _509
REMARK  201  A    between atoms: _509  and  _510
REMARK  202  A    between atoms: _517  and  _518
REMARK  203  A    between atoms: _523  and  _525
REMARK  204  A    between atoms: _525  and  _526
REMARK  205  A    between atoms: _525  and  _528
REMARK  206  A    between atoms: _528  and  _529
REMARK  207  A    between atoms: _532  and  _534
REMARK  208  A    between atoms: _534  and  _535
REMARK  209  A    between atoms: _534  and  _537
REMARK  210  A    between atoms: _537  and  _538
REMARK  211  A    between atoms: _540  and  _542
REMARK  212  A    between atoms: _542  and  _543
REMARK  213  A    between atoms: _542  and  _545
REMARK  214  A    between atoms: _545  and  _546
REMARK  215  A    between atoms: _551  and  _552
REMARK  216  A    between atoms: _554  and  _556
REMARK  217  A    between atoms: _556  and  _557
REMARK  218  A    between atoms: _556  and  _559
REMARK  219  A    between atoms: _559  and  _560
REMARK  220  A    between atoms: _562  and  _564
REMARK  221  A    between atoms: _564  and  _565
REMARK  222  A    between atoms: _564  and  _567
REMARK  223  A    between atoms: _567  and  _568
REMARK  224  A    between atoms: _571  and  _573
REMARK  225  A    between atoms: _573  and  _574
REMARK  226  A    between atoms: _573  and  _576
REMARK  227  A    between atoms: _576  and  _577
REMARK  228  A    between atoms: _582  and  _584
REMARK  229  A    between atoms: _584  and  _585
REMARK  230  A    between atoms: _584  and  _587
REMARK  231  A    between atoms: _587  and  _588
REMARK  232  A    between atoms: _594  and  _596
REMARK  233  A    between atoms: _596  and  _597
REMARK  234  A    between atoms: _601  and  _602
REMARK  235  A    between atoms: _607  and  _609
REMARK  236  A    between atoms: _609  and  _610
REMARK  237  A    between atoms: _609  and  _612
REMARK  238  A    between atoms: _612  and  _613
REMARK  239  A    between atoms: _618  and  _619
REMARK  240  A    between atoms: _621  and  _623
REMARK  241  A    between atoms: _623  and  _624
REMARK  242  A    between atoms: _623  and  _626
REMARK  243  A    between atoms: _626  and  _627
REMARK  244  A    between atoms: _627  and  _628
REMARK  245  A    between atoms: _628  and  _629
REMARK  246  A    between atoms: _629  and  _630
REMARK  247  A    between atoms: _634  and  _636
REMARK  248  A    between atoms: _636  and  _637
REMARK  249  A    between atoms: _636  and  _639
REMARK  250  A    between atoms: _639  and  _640
REMARK  251  A    between atoms: _640  and  _641
REMARK  252  A    between atoms: _646  and  _648
REMARK  253  A    between atoms: _648  and  _649
REMARK  254  A    between atoms: _648  and  _651
REMARK  255  A    between atoms: _651  and  _652
REMARK  256  A    between atoms: _655  and  _656
REMARK  257  A    between atoms: _661  and  _663
REMARK  258  A    between atoms: _663  and  _664
REMARK  259  A    between atoms: _663  and  _666
REMARK  260  A    between atoms: _666  and  _667
REMARK  261  A    between atoms: _673  and  _675
REMARK  262  A    between atoms: _675  and  _676
REMARK  263  A    between atoms: _678  and  _680
REMARK  264  A    between atoms: _680  and  _681
REMARK  265  A    between atoms: _680  and  _683
REMARK  266  A    between atoms: _683  and  _684
REMARK  267  A    between atoms: _689  and  _690
REMARK  268  A    between atoms: _692  and  _694
REMARK  269  A    between atoms: _694  and  _695
REMARK  270  A    between atoms: _694  and  _697
REMARK  271  A    between atoms: _697  and  _698
REMARK  272  A    between atoms: _701  and  _703
REMARK  273  A    between atoms: _703  and  _704
REMARK  274  A    between atoms: _703  and  _706
REMARK  275  A    between atoms: _706  and  _707
REMARK  276  A    between atoms: _712  and  _713
REMARK                            x       y       z     vdW  Elec       q    Type
REMARK                         _______ _______ _______ _____ _____    ______ ____
ROOT
ATOM      1  O   HOH     1      12.054 -16.589  -4.814  0.00  0.00    +0.000 OA
ENDROOT
TORSDOF 0
REMARK  Name = ../refined-set-2016/3m8u/3m8u_pocket.pdb
REMARK  276 active torsions:
REMARK  status: ('A' for Active; 'I' for Inactive)
REMARK    1  A    between atoms: _1  and  _3
REMARK    2  A    between atoms: _3  and  _4
REMARK    3  A    between atoms: _3  and  _6
REMARK    4  A    between atoms: _6  and  _7
REMARK    5  A    between atoms: _12  and  _14
REMARK    6  A    between atoms: _14  and  _15
REMARK    7  A    between atoms: _14  and  _17
REMARK    8  A    between atoms: _20  and  _22
REMARK    9  A    between atoms: _22  and  _23
REMARK   10  A    between atoms: _22  and  _25
REMARK   11  A    between atoms: _25  and  _26
REMARK   12  A    between atoms: _28  and  _30
REMARK   13  A    between atoms: _30  and  _31
REMARK   14  A    between atoms: _30  and  _33
REMARK   15  A    between atoms: _33  and  _34
REMARK   16  A    between atoms: _34  and  _35
REMARK   17  A    between atoms: _35  and  _36
REMARK   18  A    between atoms: _45  and  _47
REMARK   19  A    between atoms: _47  and  _48
REMARK   20  A    between atoms: _47  and  _50
REMARK   21  A    between atoms: _50  and  _51
REMARK   22  A    between atoms: _54  and  _56
REMARK   23  A    between atoms: _56  and  _57
REMARK   24  A    between atoms: _56  and  _59
REMARK   25  A    between atoms: _62  and  _64
REMARK   26  A    between atoms: _64  and  _65
REMARK   27  A    between atoms: _64  and  _67
REMARK   28  A    between atoms: _67  and  _68
REMARK   29  A    between atoms: _68  and  _69
REMARK   30  A    between atoms: _71  and  _73
REMARK   31  A    between atoms: _73  and  _74
REMARK   32  A    between atoms: _73  and  _76
REMARK   33  A    between atoms: _76  and  _77
REMARK   34  A    between atoms: _80  and  _82
REMARK   35  A    between atoms: _82  and  _83
REMARK   36  A    between atoms: _85  and  _87
REMARK   37  A    between atoms: _87  and  _88
REMARK   38  A    between atoms: _87  and  _90
REMARK   39  A    between atoms: _90  and  _91
REMARK   40  A    between atoms: _94  and  _96
REMARK   41  A    between atoms: _96  and  _97
REMARK   42  A    between atoms: _96  and  _99
REMARK   43  A    between atoms: _99  and  _100
REMARK   44  A    between atoms: _102  and  _104
REMARK   45  A    between atoms: _104  and  _105
REMARK   46  A    between atoms: _104  and  _107
REMARK   47  A    between atoms: _107  and  _108
REMARK   48  A    between atoms: _113  and  _114
REMARK   49  A    between atoms: _116  and  _118
REMARK   50  A    between atoms: _118  and  _119
REMARK   51  A    between atoms: _118  and  _121
REMARK   52  A    between atoms: _121  and  _122
REMARK   53  A    between atoms: _127  and  _129
REMARK   54  A    between atoms: _129  and  _130
REMARK   55  A    between atoms: _133  and  _135
REMARK   56  A    between atoms: _135  and  _136
REMARK   57  A    between atoms: _135  and  _138
REMARK   58  A    between atoms: _138  and  _139
REMARK   59  A    between atoms: _139  and  _140
REMARK   60  A    between atoms: _145  and  _147
REMARK   61  A    between atoms: _147  and  _148
REMARK   62  A    between atoms: _147  and  _150
REMARK   63  A    between atoms: _150  and  _151
REMARK   64  A    between atoms: _156  and  _157
REMARK   65  A    between atoms: _159  and  _161
REMARK   66  A    between atoms: _161  and  _162
REMARK   67  A    between atoms: _161  and  _164
REMARK   68  A    between atoms: _164  and  _165
REMARK   69  A    between atoms: _165  and  _166
REMARK   70  A    between atoms: _168  and  _170
REMARK   71  A    between atoms: _170  and  _171
REMARK   72  A    between atoms: _170  and  _173
REMARK   73  A    between atoms: _173  and  _174
REMARK   74  A    between atoms: _177  and  _179
REMARK   75  A    between atoms: _179  and  _180
REMARK   76  A    between atoms: _179  and  _182
REMARK   77  A    between atoms: _182  and  _183
REMARK   78  A    between atoms: _186  and  _188
REMARK   79  A    between atoms: _188  and  _189
REMARK   80  A    between atoms: _188  and  _191
REMARK   81  A    between atoms: _191  and  _192
REMARK   82  A    between atoms: _195  and  _197
REMARK   83  A    between atoms: _197  and  _198
REMARK   84  A    between atoms: _197  and  _200
REMARK   85  A    between atoms: _200  and  _201
REMARK   86  A    between atoms: _204  and  _206
REMARK   87  A    between atoms: _206  and  _207
REMARK   88  A    between atoms: _206  and  _209
REMARK   89  A    between atoms: _209  and  _210
REMARK   90  A    between atoms: _217  and  _218
REMARK   91  A    between atoms: _223  and  _225
REMARK   92  A    between atoms: _225  and  _226
REMARK   93  A    between atoms: _225  and  _228
REMARK   94  A    between atoms: _228  and  _229
REMARK   95  A    between atoms: _234  and  _236
REMARK   96  A    between atoms: _236  and  _237
REMARK   97  A    between atoms: _236  and  _239
REMARK   98  A    between atoms: _239  and  _240
REMARK   99  A    between atoms: _242  and  _244
REMARK  100  A    between atoms: _244  and  _245
REMARK  101  A    between atoms: _244  and  _247
REMARK  102  A    between atoms: _247  and  _248
REMARK  103  A    between atoms: _248  and  _249
REMARK  104  A    between atoms: _254  and  _256
REMARK  105  A    between atoms: _256  and  _257
REMARK  106  A    between atoms: _256  and  _259
REMARK  107  A    between atoms: _259  and  _260
REMARK  108  A    between atoms: _262  and  _264
REMARK  109  A    between atoms: _264  and  _265
REMARK  110  A    between atoms: _267  and  _269
REMARK  111  A    between atoms: _269  and  _270
REMARK  112  A    between atoms: _269  and  _272
REMARK  113  A    between atoms: _272  and  _273
REMARK  114  A    between atoms: _276  and  _278
REMARK  115  A    between atoms: _278  and  _279
REMARK  116  A    between atoms: _278  and  _281
REMARK  117  A    between atoms: _281  and  _282
REMARK  118  A    between atoms: _287  and  _289
REMARK  119  A    between atoms: _289  and  _290
REMARK  120  A    between atoms: _289  and  _292
REMARK  121  A    between atoms: _292  and  _293
REMARK  122  A    between atoms: _296  and  _298
REMARK  123  A    between atoms: _298  and  _299
REMARK  124  A    between atoms: _302  and  _304
REMARK  125  A    between atoms: _304  and  _305
REMARK  126  A    between atoms: _304  and  _307
REMARK  127  A    between atoms: _307  and  _308
REMARK  128  A    between atoms: _313  and  _314
REMARK  129  A    between atoms: _316  and  _318
REMARK  130  A    between atoms: _318  and  _319
REMARK  131  A    between atoms: _318  and  _321
REMARK  132  A    between atoms: _321  and  _322
REMARK  133  A    between atoms: _327  and  _328
REMARK  134  A    between atoms: _330  and  _332
REMARK  135  A    between atoms: _332  and  _333
REMARK  136  A    between atoms: _332  and  _335
REMARK  137  A    between atoms: _335  and  _336
REMARK  138  A    between atoms: _336  and  _337
REMARK  139  A    between atoms: _342  and  _344
REMARK  140  A    between atoms: _344  and  _345
REMARK  141  A    between atoms: _344  and  _347
REMARK  142  A    between atoms: _350  and  _352
REMARK  143  A    between atoms: _352  and  _353
REMARK  144  A    between atoms: _352  and  _355
REMARK  145  A    between atoms: _358  and  _360
REMARK  146  A    between atoms: _360  and  _361
REMARK  147  A    between atoms: _360  and  _363
REMARK  148  A    between atoms: _363  and  _364
REMARK  149  A    between atoms: _364  and  _365
REMARK  150  A    between atoms: _365  and  _366
REMARK  151  A    between atoms: _375  and  _377
REMARK  152  A    between atoms: _377  and  _378
REMARK  153  A    between atoms: _381  and  _383
REMARK  154  A    between atoms: _383  and  _384
REMARK  155  A    between atoms: _383  and  _386
REMARK  156  A    between atoms: _386  and  _387
REMARK  157  A    between atoms: _389  and  _391
REMARK  158  A    between atoms: _391  and  _392
REMARK  159  A    between atoms: _391  and  _394
REMARK  160  A    between atoms: _394  and  _395
REMARK  161  A    between atoms: _400  and  _402
REMARK  162  A    between atoms: _402  and  _403
REMARK  163  A    between atoms: _402  and  _405
REMARK  164  A    between atoms: _405  and  _406
REMARK  165  A    between atoms: _416  and  _418
REMARK  166  A    between atoms: _418  and  _419
REMARK  167  A    between atoms: _418  and  _421
REMARK  168  A    between atoms: _421  and  _422
REMARK  169  A    between atoms: _425  and  _427
REMARK  170  A    between atoms: _427  and  _428
REMARK  171  A    between atoms: _427  and  _430
REMARK  172  A    between atoms: _430  and  _431
REMARK  173  A    between atoms: _436  and  _437
REMARK  174  A    between atoms: _439  and  _441
REMARK  175  A    between atoms: _441  and  _442
REMARK  176  A    between atoms: _444  and  _446
REMARK  177  A    between atoms: _446  and  _447
REMARK  178  A    between atoms: _446  and  _449
REMARK  179  A    between atoms: _449  and  _450
REMARK  180  A    between atoms: _460  and  _462
REMARK  181  A    between atoms: _462  and  _463
REMARK  182  A    between atoms: _462  and  _465
REMARK  183  A    between atoms: _465  and  _466
REMARK  184  A    between atoms: _468  and  _470
REMARK  185  A    between atoms: _470  and  _471
REMARK  186  A    between atoms: _473  and  _475
REMARK  187  A    between atoms: _475  and  _476
REMARK  188  A    between atoms: _475  and  _478
REMARK  189  A    between atoms: _478  and  _479
REMARK  190  A    between atoms: _482  and  _484
REMARK  191  A    between atoms: _484  and  _485
REMARK  192  A    between atoms: _484  and  _487
REMARK  193  A    between atoms: _487  and  _488
REMARK  194  A    between atoms: _493  and  _495
REMARK  195  A    between atoms: _495  and  _496
REMARK  196  A    between atoms: _495  and  _498
REMARK  197  A    between atoms: _498  and  _499
REMARK  198  A    between atoms: _504  and  _506
REMARK  199  A    between atoms: _506  and  _507
REMARK  200  A    between atoms: _506  and  _509
REMARK  201  A    between atoms: _509  and  _510
REMARK  202  A    between atoms: _517  and  _518
REMARK  203  A    between atoms: _523  and  _525
REMARK  204  A    between atoms: _525  and  _526
REMARK  205  A    between atoms: _525  and  _528
REMARK  206  A    between atoms: _528  and  _529
REMARK  207  A    between atoms: _532  and  _534
REMARK  208  A    between atoms: _534  and  _535
REMARK  209  A    between atoms: _534  and  _537
REMARK  210  A    between atoms: _537  and  _538
REMARK  211  A    between atoms: _540  and  _542
REMARK  212  A    between atoms: _542  and  _543
REMARK  213  A    between atoms: _542  and  _545
REMARK  214  A    between atoms: _545  and  _546
REMARK  215  A    between atoms: _551  and  _552
REMARK  216  A    between atoms: _554  and  _556
REMARK  217  A    between atoms: _556  and  _557
REMARK  218  A    between atoms: _556  and  _559
REMARK  219  A    between atoms: _559  and  _560
REMARK  220  A    between atoms: _562  and  _564
REMARK  221  A    between atoms: _564  and  _565
REMARK  222  A    between atoms: _564  and  _567
REMARK  223  A    between atoms: _567  and  _568
REMARK  224  A    between atoms: _571  and  _573
REMARK  225  A    between atoms: _573  and  _574
REMARK  226  A    between atoms: _573  and  _576
REMARK  227  A    between atoms: _576  and  _577
REMARK  228  A    between atoms: _582  and  _584
REMARK  229  A    between atoms: _584  and  _585
REMARK  230  A    between atoms: _584  and  _587
REMARK  231  A    between atoms: _587  and  _588
REMARK  232  A    between atoms: _594  and  _596
REMARK  233  A    between atoms: _596  and  _597
REMARK  234  A    between atoms: _601  and  _602
REMARK  235  A    between atoms: _607  and  _609
REMARK  236  A    between atoms: _609  and  _610
REMARK  237  A    between atoms: _609  and  _612
REMARK  238  A    between atoms: _612  and  _613
REMARK  239  A    between atoms: _618  and  _619
REMARK  240  A    between atoms: _621  and  _623
REMARK  241  A    between atoms: _623  and  _624
REMARK  242  A    between atoms: _623  and  _626
REMARK  243  A    between atoms: _626  and  _627
REMARK  244  A    between atoms: _627  and  _628
REMARK  245  A    between atoms: _628  and  _629
REMARK  246  A    between atoms: _629  and  _630
REMARK  247  A    between atoms: _634  and  _636
REMARK  248  A    between atoms: _636  and  _637
REMARK  249  A    between atoms: _636  and  _639
REMARK  250  A    between atoms: _639  and  _640
REMARK  251  A    between atoms: _640  and  _641
REMARK  252  A    between atoms: _646  and  _648
REMARK  253  A    between atoms: _648  and  _649
REMARK  254  A    between atoms: _648  and  _651
REMARK  255  A    between atoms: _651  and  _652
REMARK  256  A    between atoms: _655  and  _656
REMARK  257  A    between atoms: _661  and  _663
REMARK  258  A    between atoms: _663  and  _664
REMARK  259  A    between atoms: _663  and  _666
REMARK  260  A    between atoms: _666  and  _667
REMARK  261  A    between atoms: _673  and  _675
REMARK  262  A    between atoms: _675  and  _676
REMARK  263  A    between atoms: _678  and  _680
REMARK  264  A    between atoms: _680  and  _681
REMARK  265  A    between atoms: _680  and  _683
REMARK  266  A    between atoms: _683  and  _684
REMARK  267  A    between atoms: _689  and  _690
REMARK  268  A    between atoms: _692  and  _694
REMARK  269  A    between atoms: _694  and  _695
REMARK  270  A    between atoms: _694  and  _697
REMARK  271  A    between atoms: _697  and  _698
REMARK  272  A    between atoms: _701  and  _703
REMARK  273  A    between atoms: _703  and  _704
REMARK  274  A    between atoms: _703  and  _706
REMARK  275  A    between atoms: _706  and  _707
REMARK  276  A    between atoms: _712  and  _713
REMARK                            x       y       z     vdW  Elec       q    Type
REMARK                         _______ _______ _______ _____ _____    ______ ____
ROOT
ATOM      1  O   HOH     1      23.510 -24.120 -16.109  0.00  0.00    +0.000 OA
ENDROOT
TORSDOF 0
