REMARK  Name = ../refined-set-2016/3brn/3brn_pocket.pdb
REMARK  211 active torsions:
REMARK  status: ('A' for Active; 'I' for Inactive)
REMARK    1  A    between atoms: _1  and  _3
REMARK    2  A    between atoms: _3  and  _4
REMARK    3  A    between atoms: _7  and  _9
REMARK    4  A    between atoms: _9  and  _10
REMARK    5  A    between atoms: _9  and  _12
REMARK    6  A    between atoms: _12  and  _13
REMARK    7  A    between atoms: _18  and  _19
REMARK    8  A    between atoms: _21  and  _23
REMARK    9  A    between atoms: _23  and  _24
REMARK   10  A    between atoms: _23  and  _26
REMARK   11  A    between atoms: _26  and  _27
REMARK   12  A    between atoms: _27  and  _28
REMARK   13  A    between atoms: _28  and  _29
REMARK   14  A    between atoms: _29  and  _30
REMARK   15  A    between atoms: _34  and  _36
REMARK   16  A    between atoms: _36  and  _37
REMARK   17  A    between atoms: _36  and  _39
REMARK   18  A    between atoms: _39  and  _40
REMARK   19  A    between atoms: _42  and  _44
REMARK   20  A    between atoms: _44  and  _45
REMARK   21  A    between atoms: _44  and  _47
REMARK   22  A    between atoms: _50  and  _52
REMARK   23  A    between atoms: _52  and  _53
REMARK   24  A    between atoms: _52  and  _55
REMARK   25  A    between atoms: _55  and  _56
REMARK   26  A    between atoms: _61  and  _63
REMARK   27  A    between atoms: _63  and  _64
REMARK   28  A    between atoms: _67  and  _68
REMARK   29  A    between atoms: _73  and  _75
REMARK   30  A    between atoms: _75  and  _76
REMARK   31  A    between atoms: _78  and  _80
REMARK   32  A    between atoms: _80  and  _81
REMARK   33  A    between atoms: _80  and  _83
REMARK   34  A    between atoms: _83  and  _84
REMARK   35  A    between atoms: _89  and  _90
REMARK   36  A    between atoms: _92  and  _94
REMARK   37  A    between atoms: _94  and  _95
REMARK   38  A    between atoms: _94  and  _97
REMARK   39  A    between atoms: _97  and  _98
REMARK   40  A    between atoms: _103  and  _104
REMARK   41  A    between atoms: _106  and  _108
REMARK   42  A    between atoms: _108  and  _109
REMARK   43  A    between atoms: _108  and  _111
REMARK   44  A    between atoms: _111  and  _112
REMARK   45  A    between atoms: _115  and  _117
REMARK   46  A    between atoms: _117  and  _118
REMARK   47  A    between atoms: _117  and  _120
REMARK   48  A    between atoms: _120  and  _121
REMARK   49  A    between atoms: _126  and  _127
REMARK   50  A    between atoms: _129  and  _131
REMARK   51  A    between atoms: _131  and  _132
REMARK   52  A    between atoms: _131  and  _134
REMARK   53  A    between atoms: _137  and  _139
REMARK   54  A    between atoms: _139  and  _140
REMARK   55  A    between atoms: _139  and  _142
REMARK   56  A    between atoms: _142  and  _143
REMARK   57  A    between atoms: _146  and  _148
REMARK   58  A    between atoms: _148  and  _149
REMARK   59  A    between atoms: _148  and  _151
REMARK   60  A    between atoms: _155  and  _156
REMARK   61  A    between atoms: _161  and  _163
REMARK   62  A    between atoms: _163  and  _164
REMARK   63  A    between atoms: _163  and  _166
REMARK   64  A    between atoms: _166  and  _167
REMARK   65  A    between atoms: _170  and  _172
REMARK   66  A    between atoms: _172  and  _173
REMARK   67  A    between atoms: _172  and  _175
REMARK   68  A    between atoms: _175  and  _176
REMARK   69  A    between atoms: _179  and  _181
REMARK   70  A    between atoms: _181  and  _182
REMARK   71  A    between atoms: _181  and  _184
REMARK   72  A    between atoms: _184  and  _185
REMARK   73  A    between atoms: _187  and  _189
REMARK   74  A    between atoms: _189  and  _190
REMARK   75  A    between atoms: _189  and  _192
REMARK   76  A    between atoms: _192  and  _193
REMARK   77  A    between atoms: _199  and  _201
REMARK   78  A    between atoms: _201  and  _202
REMARK   79  A    between atoms: _201  and  _204
REMARK   80  A    between atoms: _204  and  _205
REMARK   81  A    between atoms: _208  and  _210
REMARK   82  A    between atoms: _210  and  _211
REMARK   83  A    between atoms: _210  and  _213
REMARK   84  A    between atoms: _213  and  _214
REMARK   85  A    between atoms: _219  and  _220
REMARK   86  A    between atoms: _222  and  _224
REMARK   87  A    between atoms: _224  and  _225
REMARK   88  A    between atoms: _228  and  _230
REMARK   89  A    between atoms: _230  and  _231
REMARK   90  A    between atoms: _230  and  _233
REMARK   91  A    between atoms: _233  and  _234
REMARK   92  A    between atoms: _237  and  _239
REMARK   93  A    between atoms: _239  and  _240
REMARK   94  A    between atoms: _239  and  _242
REMARK   95  A    between atoms: _245  and  _247
REMARK   96  A    between atoms: _247  and  _248
REMARK   97  A    between atoms: _247  and  _250
REMARK   98  A    between atoms: _250  and  _251
REMARK   99  A    between atoms: _254  and  _256
REMARK  100  A    between atoms: _256  and  _257
REMARK  101  A    between atoms: _256  and  _259
REMARK  102  A    between atoms: _262  and  _264
REMARK  103  A    between atoms: _264  and  _265
REMARK  104  A    between atoms: _264  and  _267
REMARK  105  A    between atoms: _267  and  _268
REMARK  106  A    between atoms: _271  and  _273
REMARK  107  A    between atoms: _273  and  _274
REMARK  108  A    between atoms: _273  and  _276
REMARK  109  A    between atoms: _276  and  _277
REMARK  110  A    between atoms: _277  and  _278
REMARK  111  A    between atoms: _281  and  _283
REMARK  112  A    between atoms: _283  and  _284
REMARK  113  A    between atoms: _283  and  _286
REMARK  114  A    between atoms: _289  and  _291
REMARK  115  A    between atoms: _291  and  _292
REMARK  116  A    between atoms: _291  and  _294
REMARK  117  A    between atoms: _294  and  _295
REMARK  118  A    between atoms: _298  and  _300
REMARK  119  A    between atoms: _300  and  _301
REMARK  120  A    between atoms: _304  and  _306
REMARK  121  A    between atoms: _306  and  _307
REMARK  122  A    between atoms: _306  and  _309
REMARK  123  A    between atoms: _309  and  _310
REMARK  124  A    between atoms: _313  and  _315
REMARK  125  A    between atoms: _315  and  _316
REMARK  126  A    between atoms: _315  and  _318
REMARK  127  A    between atoms: _318  and  _319
REMARK  128  A    between atoms: _321  and  _323
REMARK  129  A    between atoms: _323  and  _324
REMARK  130  A    between atoms: _326  and  _328
REMARK  131  A    between atoms: _328  and  _329
REMARK  132  A    between atoms: _328  and  _331
REMARK  133  A    between atoms: _331  and  _332
REMARK  134  A    between atoms: _335  and  _337
REMARK  135  A    between atoms: _337  and  _338
REMARK  136  A    between atoms: _337  and  _340
REMARK  137  A    between atoms: _340  and  _341
REMARK  138  A    between atoms: _344  and  _346
REMARK  139  A    between atoms: _346  and  _347
REMARK  140  A    between atoms: _346  and  _349
REMARK  141  A    between atoms: _349  and  _350
REMARK  142  A    between atoms: _353  and  _355
REMARK  143  A    between atoms: _355  and  _356
REMARK  144  A    between atoms: _355  and  _358
REMARK  145  A    between atoms: _361  and  _363
REMARK  146  A    between atoms: _363  and  _364
REMARK  147  A    between atoms: _363  and  _366
REMARK  148  A    between atoms: _366  and  _367
REMARK  149  A    between atoms: _369  and  _371
REMARK  150  A    between atoms: _371  and  _372
REMARK  151  A    between atoms: _371  and  _374
REMARK  152  A    between atoms: _374  and  _375
REMARK  153  A    between atoms: _378  and  _380
REMARK  154  A    between atoms: _380  and  _381
REMARK  155  A    between atoms: _380  and  _383
REMARK  156  A    between atoms: _383  and  _384
REMARK  157  A    between atoms: _389  and  _390
REMARK  158  A    between atoms: _392  and  _394
REMARK  159  A    between atoms: _394  and  _395
REMARK  160  A    between atoms: _394  and  _397
REMARK  161  A    between atoms: _397  and  _398
REMARK  162  A    between atoms: _398  and  _399
REMARK  163  A    between atoms: _399  and  _400
REMARK  164  A    between atoms: _409  and  _411
REMARK  165  A    between atoms: _411  and  _412
REMARK  166  A    between atoms: _411  and  _414
REMARK  167  A    between atoms: _414  and  _415
REMARK  168  A    between atoms: _417  and  _419
REMARK  169  A    between atoms: _419  and  _420
REMARK  170  A    between atoms: _419  and  _422
REMARK  171  A    between atoms: _424  and  _426
REMARK  172  A    between atoms: _426  and  _427
REMARK  173  A    between atoms: _426  and  _429
REMARK  174  A    between atoms: _429  and  _430
REMARK  175  A    between atoms: _433  and  _435
REMARK  176  A    between atoms: _435  and  _436
REMARK  177  A    between atoms: _435  and  _438
REMARK  178  A    between atoms: _441  and  _443
REMARK  179  A    between atoms: _443  and  _444
REMARK  180  A    between atoms: _443  and  _446
REMARK  181  A    between atoms: _446  and  _447
REMARK  182  A    between atoms: _447  and  _448
REMARK  183  A    between atoms: _450  and  _452
REMARK  184  A    between atoms: _452  and  _453
REMARK  185  A    between atoms: _452  and  _455
REMARK  186  A    between atoms: _455  and  _456
REMARK  187  A    between atoms: _456  and  _457
REMARK  188  A    between atoms: _457  and  _458
REMARK  189  A    between atoms: _467  and  _469
REMARK  190  A    between atoms: _469  and  _470
REMARK  191  A    between atoms: _473  and  _474
REMARK  192  A    between atoms: _479  and  _481
REMARK  193  A    between atoms: _481  and  _482
REMARK  194  A    between atoms: _481  and  _484
REMARK  195  A    between atoms: _484  and  _485
REMARK  196  A    between atoms: _485  and  _486
REMARK  197  A    between atoms: _489  and  _491
REMARK  198  A    between atoms: _491  and  _492
REMARK  199  A    between atoms: _491  and  _494
REMARK  200  A    between atoms: _494  and  _495
REMARK  201  A    between atoms: _498  and  _500
REMARK  202  A    between atoms: _500  and  _501
REMARK  203  A    between atoms: _500  and  _503
REMARK  204  A    between atoms: _503  and  _504
REMARK  205  A    between atoms: _514  and  _516
REMARK  206  A    between atoms: _516  and  _517
REMARK  207  A    between atoms: _516  and  _519
REMARK  208  A    between atoms: _522  and  _524
REMARK  209  A    between atoms: _524  and  _525
REMARK  210  A    between atoms: _524  and  _527
REMARK  211  A    between atoms: _527  and  _528
REMARK                            x       y       z     vdW  Elec       q    Type
REMARK                         _______ _______ _______ _____ _____    ______ ____
ROOT
ATOM      1  CA  SER A   4     -16.363  34.290  -9.724  0.00  0.00    +0.178 C 
ENDROOT
BRANCH   1   2
ATOM      2  C   SER A   4     -15.299  33.528 -10.543  0.00  0.00    +0.243 C 
ATOM      3  N   VAL A   5     -14.566  32.646  -9.882  0.00  0.00    -0.297 N 
ATOM      4  H   VAL A   5     -14.774  32.467  -8.879  0.00  0.00    +0.150 HD
ATOM      5  O   SER A   4     -15.103  33.783 -11.733  0.00  0.00    -0.273 OA
BRANCH   3   6
ATOM      6  CA  VAL A   5     -13.474  31.918 -10.521  0.00  0.00    +0.149 C 
BRANCH   6   7
ATOM      7  C   VAL A   5     -13.986  30.936 -11.590  0.00  0.00    +0.241 C 
ATOM      8  N   ASN A   6     -15.131  30.322 -11.387  0.00  0.00    -0.297 N 
ATOM      9  H   ASN A   6     -15.603  30.401 -10.463  0.00  0.00    +0.150 HD
ATOM     10  O   VAL A   5     -13.354  30.752 -12.627  0.00  0.00    -0.273 OA
BRANCH   8  11
ATOM     11  CA  ASN A   6     -15.739  29.538 -12.438  0.00  0.00    +0.158 C 
BRANCH  11  12
ATOM     12  C   ASN A   6     -16.311  30.342 -13.560  0.00  0.00    +0.241 C 
ATOM     13  N   GLY A   7     -16.884  31.478 -13.253  0.00  0.00    -0.295 N 
ATOM     14  H   GLY A   7     -16.957  31.749 -12.252  0.00  0.00    +0.150 HD
ATOM     15  O   ASN A   6     -16.293  29.923 -14.665  0.00  0.00    -0.273 OA
BRANCH  13  16
ATOM     16  CA  GLY A   7     -17.422  32.373 -14.263  0.00  0.00    +0.176 C 
BRANCH  16  17
ATOM     17  C   GLY A   7     -18.483  31.706 -15.119  0.00  0.00    +0.246 C 
ATOM     18  O   GLY A   7     -19.211  30.838 -14.640  0.00  0.00    -0.273 OA
ATOM     19  N   PRO A   8     -18.460  31.980 -16.432  0.00  0.00    -0.273 N 
ATOM     20  CD  PRO A   8     -17.326  32.564 -17.172  0.00  0.00    +0.094 C 
ATOM     21  CG  PRO A   8     -17.691  32.319 -18.621  0.00  0.00    +0.024 C 
ATOM     22  CB  PRO A   8     -19.177  32.176 -18.643  0.00  0.00    +0.030 C 
ATOM     23  CA  PRO A   8     -19.492  31.469 -17.327  0.00  0.00    +0.140 C 
BRANCH  23  24
ATOM     24  C   PRO A   8     -19.372  29.962 -17.507  0.00  0.00    +0.227 C 
ATOM     25  O   PRO A   8     -20.247  29.339 -18.112  0.00  0.00    -0.286 OA
ENDBRANCH  23  24
ENDBRANCH  16  17
ENDBRANCH  13  16
ENDBRANCH  11  12
BRANCH  11  26
ATOM     26  CB  ASN A   6     -16.851  28.689 -11.878  0.00  0.00    +0.114 C 
BRANCH  26  27
ATOM     27  CG  ASN A   6     -16.369  27.588 -11.038  0.00  0.00    +0.222 C 
ATOM     28  ND2 ASN A   6     -17.181  27.207 -10.116  0.00  0.00    -0.329 N 
ATOM     29 HD21 ASN A   6     -16.928  26.411  -9.496  0.00  0.00    +0.145 HD
ATOM     30 HD22 ASN A   6     -18.091  27.695  -9.990  0.00  0.00    +0.145 HD
ATOM     31  OD1 ASN A   6     -15.316  27.061 -11.221  0.00  0.00    -0.275 OA
ENDBRANCH  26  27
ENDBRANCH  11  26
ENDBRANCH   8  11
ENDBRANCH   6   7
BRANCH   6  32
ATOM     32  CB  VAL A   5     -12.633  31.164  -9.471  0.00  0.00    +0.027 C 
ATOM     33  CG2 VAL A   5     -11.971  32.151  -8.505  0.00  0.00    +0.002 C 
ATOM     34  CG1 VAL A   5     -11.618  30.227 -10.138  0.00  0.00    +0.002 C 
ENDBRANCH   6  32
ENDBRANCH   3   6
ENDBRANCH   1   2
BRANCH   1  36
ATOM     35  C   LYS A   3     -17.916  32.454  -9.515  0.00  0.00    +0.241 C 
ATOM     36  N   SER A   4     -17.165  33.380  -8.931  0.00  0.00    -0.295 N 
ATOM     37  H   SER A   4     -17.152  33.453  -7.894  0.00  0.00    +0.150 HD
ATOM     38  O   LYS A   3     -18.078  32.420 -10.731  0.00  0.00    -0.273 OA
BRANCH  35  39
ATOM     39  CA  LYS A   3     -18.629  31.455  -8.604  0.00  0.00    +0.149 C 
BRANCH  39  41
ATOM     40  C   TYR A   2     -16.716  30.304  -7.634  0.00  0.00    +0.241 C 
ATOM     41  N   LYS A   3     -17.811  31.044  -7.464  0.00  0.00    -0.297 N 
ATOM     42  H   LYS A   3     -18.088  31.334  -6.505  0.00  0.00    +0.150 HD
ATOM     43  O   TYR A   2     -16.330  29.959  -8.742  0.00  0.00    -0.273 OA
BRANCH  40  44
ATOM     44  CA  TYR A   2     -15.861  30.000  -6.390  0.00  0.00    +0.153 C 
BRANCH  44  46
ATOM     45  C   ALA A   1     -15.280  32.275  -5.931  0.00  0.00    +0.238 C 
ATOM     46  N   TYR A   2     -15.801  31.138  -5.481  0.00  0.00    -0.297 N 
ATOM     47  H   TYR A   2     -16.156  31.062  -4.507  0.00  0.00    +0.150 HD
ATOM     48  O   ALA A   1     -14.798  32.351  -7.052  0.00  0.00    -0.274 OA
BRANCH  45  49
ATOM     49  CA  ALA A   1     -15.235  33.491  -5.000  0.00  0.00    +0.145 C 
ATOM     50  CB  ALA A   1     -14.021  33.439  -4.078  0.00  0.00    +0.028 C 
BRANCH  49  51
ATOM     51  N   ALA A   1     -16.435  33.792  -4.244  0.00  0.00    -0.238 NA
ATOM     52  H   ALA A   1     -16.344  33.940  -3.219  0.00  0.00    +0.142 HD
ENDBRANCH  49  51
ENDBRANCH  45  49
ENDBRANCH  44  46
BRANCH  44  53
ATOM     53  CB  TYR A   2     -16.303  28.705  -5.681  0.00  0.00    +0.055 C 
BRANCH  53  54
ATOM     54  CG  TYR A   2     -17.779  28.579  -5.481  0.00  0.00    -0.020 A 
ATOM     55  CD2 TYR A   2     -18.383  29.066  -4.329  0.00  0.00    -0.001 A 
ATOM     56  CE2 TYR A   2     -19.726  28.890  -4.106  0.00  0.00    +0.036 A 
ATOM     57  CZ  TYR A   2     -20.484  28.200  -5.021  0.00  0.00    +0.134 A 
ATOM     58  CE1 TYR A   2     -19.906  27.670  -6.153  0.00  0.00    +0.036 A 
ATOM     59  CD1 TYR A   2     -18.558  27.841  -6.366  0.00  0.00    -0.001 A 
BRANCH  57  60
ATOM     60  OH  TYR A   2     -21.834  28.084  -4.812  0.00  0.00    -0.506 OA
ATOM     61  HH  TYR A   2     -22.073  28.519  -3.955  0.00  0.00    +0.292 HD
ENDBRANCH  57  60
ENDBRANCH  53  54
ENDBRANCH  44  53
ENDBRANCH  40  44
ENDBRANCH  39  41
BRANCH  39  62
ATOM     62  CB  LYS A   3     -19.973  32.023  -8.140  0.00  0.00    +0.029 C 
BRANCH  62  63
ATOM     63  CG  LYS A   3     -20.982  30.969  -7.728  0.00  0.00    +0.000 C 
BRANCH  63  64
ATOM     64  CD  LYS A   3     -21.875  31.474  -6.627  0.00  0.00    -0.024 C 
BRANCH  64  65
ATOM     65  CE  LYS A   3     -23.066  30.564  -6.423  0.00  0.00    -0.086 C 
BRANCH  65  66
ATOM     66  NZ  LYS A   3     -24.198  30.959  -7.298  0.00  0.00    +0.380 N 
ATOM     67  HZ1 LYS A   3     -24.482  31.934  -7.076  0.00  0.00    -0.089 HD
ATOM     68  HZ2 LYS A   3     -25.000  30.317  -7.136  0.00  0.00    -0.089 HD
ATOM     69  HZ3 LYS A   3     -23.902  30.901  -8.293  0.00  0.00    -0.089 HD
ENDBRANCH  65  66
ENDBRANCH  64  65
ENDBRANCH  63  64
ENDBRANCH  62  63
ENDBRANCH  39  62
ENDBRANCH  35  39
ENDBRANCH   1  36
BRANCH   1  70
ATOM     70  CB  SER A   4     -15.680  35.330  -8.816  0.00  0.00    +0.166 C 
BRANCH  70  71
ATOM     71  OG  SER A   4     -14.764  36.100  -9.576  0.00  0.00    -0.380 OA
ATOM     72  H   SER A   4     -15.249  36.566 -10.302  0.00  0.00    +0.211 HD
ENDBRANCH  70  71
ENDBRANCH   1  70
TORSDOF 28
REMARK  Name = ../refined-set-2016/3brn/3brn_pocket.pdb
REMARK  211 active torsions:
REMARK  status: ('A' for Active; 'I' for Inactive)
REMARK    1  A    between atoms: _1  and  _3
REMARK    2  A    between atoms: _3  and  _4
REMARK    3  A    between atoms: _7  and  _9
REMARK    4  A    between atoms: _9  and  _10
REMARK    5  A    between atoms: _9  and  _12
REMARK    6  A    between atoms: _12  and  _13
REMARK    7  A    between atoms: _18  and  _19
REMARK    8  A    between atoms: _21  and  _23
REMARK    9  A    between atoms: _23  and  _24
REMARK   10  A    between atoms: _23  and  _26
REMARK   11  A    between atoms: _26  and  _27
REMARK   12  A    between atoms: _27  and  _28
REMARK   13  A    between atoms: _28  and  _29
REMARK   14  A    between atoms: _29  and  _30
REMARK   15  A    between atoms: _34  and  _36
REMARK   16  A    between atoms: _36  and  _37
REMARK   17  A    between atoms: _36  and  _39
REMARK   18  A    between atoms: _39  and  _40
REMARK   19  A    between atoms: _42  and  _44
REMARK   20  A    between atoms: _44  and  _45
REMARK   21  A    between atoms: _44  and  _47
REMARK   22  A    between atoms: _50  and  _52
REMARK   23  A    between atoms: _52  and  _53
REMARK   24  A    between atoms: _52  and  _55
REMARK   25  A    between atoms: _55  and  _56
REMARK   26  A    between atoms: _61  and  _63
REMARK   27  A    between atoms: _63  and  _64
REMARK   28  A    between atoms: _67  and  _68
REMARK   29  A    between atoms: _73  and  _75
REMARK   30  A    between atoms: _75  and  _76
REMARK   31  A    between atoms: _78  and  _80
REMARK   32  A    between atoms: _80  and  _81
REMARK   33  A    between atoms: _80  and  _83
REMARK   34  A    between atoms: _83  and  _84
REMARK   35  A    between atoms: _89  and  _90
REMARK   36  A    between atoms: _92  and  _94
REMARK   37  A    between atoms: _94  and  _95
REMARK   38  A    between atoms: _94  and  _97
REMARK   39  A    between atoms: _97  and  _98
REMARK   40  A    between atoms: _103  and  _104
REMARK   41  A    between atoms: _106  and  _108
REMARK   42  A    between atoms: _108  and  _109
REMARK   43  A    between atoms: _108  and  _111
REMARK   44  A    between atoms: _111  and  _112
REMARK   45  A    between atoms: _115  and  _117
REMARK   46  A    between atoms: _117  and  _118
REMARK   47  A    between atoms: _117  and  _120
REMARK   48  A    between atoms: _120  and  _121
REMARK   49  A    between atoms: _126  and  _127
REMARK   50  A    between atoms: _129  and  _131
REMARK   51  A    between atoms: _131  and  _132
REMARK   52  A    between atoms: _131  and  _134
REMARK   53  A    between atoms: _137  and  _139
REMARK   54  A    between atoms: _139  and  _140
REMARK   55  A    between atoms: _139  and  _142
REMARK   56  A    between atoms: _142  and  _143
REMARK   57  A    between atoms: _146  and  _148
REMARK   58  A    between atoms: _148  and  _149
REMARK   59  A    between atoms: _148  and  _151
REMARK   60  A    between atoms: _155  and  _156
REMARK   61  A    between atoms: _161  and  _163
REMARK   62  A    between atoms: _163  and  _164
REMARK   63  A    between atoms: _163  and  _166
REMARK   64  A    between atoms: _166  and  _167
REMARK   65  A    between atoms: _170  and  _172
REMARK   66  A    between atoms: _172  and  _173
REMARK   67  A    between atoms: _172  and  _175
REMARK   68  A    between atoms: _175  and  _176
REMARK   69  A    between atoms: _179  and  _181
REMARK   70  A    between atoms: _181  and  _182
REMARK   71  A    between atoms: _181  and  _184
REMARK   72  A    between atoms: _184  and  _185
REMARK   73  A    between atoms: _187  and  _189
REMARK   74  A    between atoms: _189  and  _190
REMARK   75  A    between atoms: _189  and  _192
REMARK   76  A    between atoms: _192  and  _193
REMARK   77  A    between atoms: _199  and  _201
REMARK   78  A    between atoms: _201  and  _202
REMARK   79  A    between atoms: _201  and  _204
REMARK   80  A    between atoms: _204  and  _205
REMARK   81  A    between atoms: _208  and  _210
REMARK   82  A    between atoms: _210  and  _211
REMARK   83  A    between atoms: _210  and  _213
REMARK   84  A    between atoms: _213  and  _214
REMARK   85  A    between atoms: _219  and  _220
REMARK   86  A    between atoms: _222  and  _224
REMARK   87  A    between atoms: _224  and  _225
REMARK   88  A    between atoms: _228  and  _230
REMARK   89  A    between atoms: _230  and  _231
REMARK   90  A    between atoms: _230  and  _233
REMARK   91  A    between atoms: _233  and  _234
REMARK   92  A    between atoms: _237  and  _239
REMARK   93  A    between atoms: _239  and  _240
REMARK   94  A    between atoms: _239  and  _242
REMARK   95  A    between atoms: _245  and  _247
REMARK   96  A    between atoms: _247  and  _248
REMARK   97  A    between atoms: _247  and  _250
REMARK   98  A    between atoms: _250  and  _251
REMARK   99  A    between atoms: _254  and  _256
REMARK  100  A    between atoms: _256  and  _257
REMARK  101  A    between atoms: _256  and  _259
REMARK  102  A    between atoms: _262  and  _264
REMARK  103  A    between atoms: _264  and  _265
REMARK  104  A    between atoms: _264  and  _267
REMARK  105  A    between atoms: _267  and  _268
REMARK  106  A    between atoms: _271  and  _273
REMARK  107  A    between atoms: _273  and  _274
REMARK  108  A    between atoms: _273  and  _276
REMARK  109  A    between atoms: _276  and  _277
REMARK  110  A    between atoms: _277  and  _278
REMARK  111  A    between atoms: _281  and  _283
REMARK  112  A    between atoms: _283  and  _284
REMARK  113  A    between atoms: _283  and  _286
REMARK  114  A    between atoms: _289  and  _291
REMARK  115  A    between atoms: _291  and  _292
REMARK  116  A    between atoms: _291  and  _294
REMARK  117  A    between atoms: _294  and  _295
REMARK  118  A    between atoms: _298  and  _300
REMARK  119  A    between atoms: _300  and  _301
REMARK  120  A    between atoms: _304  and  _306
REMARK  121  A    between atoms: _306  and  _307
REMARK  122  A    between atoms: _306  and  _309
REMARK  123  A    between atoms: _309  and  _310
REMARK  124  A    between atoms: _313  and  _315
REMARK  125  A    between atoms: _315  and  _316
REMARK  126  A    between atoms: _315  and  _318
REMARK  127  A    between atoms: _318  and  _319
REMARK  128  A    between atoms: _321  and  _323
REMARK  129  A    between atoms: _323  and  _324
REMARK  130  A    between atoms: _326  and  _328
REMARK  131  A    between atoms: _328  and  _329
REMARK  132  A    between atoms: _328  and  _331
REMARK  133  A    between atoms: _331  and  _332
REMARK  134  A    between atoms: _335  and  _337
REMARK  135  A    between atoms: _337  and  _338
REMARK  136  A    between atoms: _337  and  _340
REMARK  137  A    between atoms: _340  and  _341
REMARK  138  A    between atoms: _344  and  _346
REMARK  139  A    between atoms: _346  and  _347
REMARK  140  A    between atoms: _346  and  _349
REMARK  141  A    between atoms: _349  and  _350
REMARK  142  A    between atoms: _353  and  _355
REMARK  143  A    between atoms: _355  and  _356
REMARK  144  A    between atoms: _355  and  _358
REMARK  145  A    between atoms: _361  and  _363
REMARK  146  A    between atoms: _363  and  _364
REMARK  147  A    between atoms: _363  and  _366
REMARK  148  A    between atoms: _366  and  _367
REMARK  149  A    between atoms: _369  and  _371
REMARK  150  A    between atoms: _371  and  _372
REMARK  151  A    between atoms: _371  and  _374
REMARK  152  A    between atoms: _374  and  _375
REMARK  153  A    between atoms: _378  and  _380
REMARK  154  A    between atoms: _380  and  _381
REMARK  155  A    between atoms: _380  and  _383
REMARK  156  A    between atoms: _383  and  _384
REMARK  157  A    between atoms: _389  and  _390
REMARK  158  A    between atoms: _392  and  _394
REMARK  159  A    between atoms: _394  and  _395
REMARK  160  A    between atoms: _394  and  _397
REMARK  161  A    between atoms: _397  and  _398
REMARK  162  A    between atoms: _398  and  _399
REMARK  163  A    between atoms: _399  and  _400
REMARK  164  A    between atoms: _409  and  _411
REMARK  165  A    between atoms: _411  and  _412
REMARK  166  A    between atoms: _411  and  _414
REMARK  167  A    between atoms: _414  and  _415
REMARK  168  A    between atoms: _417  and  _419
REMARK  169  A    between atoms: _419  and  _420
REMARK  170  A    between atoms: _419  and  _422
REMARK  171  A    between atoms: _424  and  _426
REMARK  172  A    between atoms: _426  and  _427
REMARK  173  A    between atoms: _426  and  _429
REMARK  174  A    between atoms: _429  and  _430
REMARK  175  A    between atoms: _433  and  _435
REMARK  176  A    between atoms: _435  and  _436
REMARK  177  A    between atoms: _435  and  _438
REMARK  178  A    between atoms: _441  and  _443
REMARK  179  A    between atoms: _443  and  _444
REMARK  180  A    between atoms: _443  and  _446
REMARK  181  A    between atoms: _446  and  _447
REMARK  182  A    between atoms: _447  and  _448
REMARK  183  A    between atoms: _450  and  _452
REMARK  184  A    between atoms: _452  and  _453
REMARK  185  A    between atoms: _452  and  _455
REMARK  186  A    between atoms: _455  and  _456
REMARK  187  A    between atoms: _456  and  _457
REMARK  188  A    between atoms: _457  and  _458
REMARK  189  A    between atoms: _467  and  _469
REMARK  190  A    between atoms: _469  and  _470
REMARK  191  A    between atoms: _473  and  _474
REMARK  192  A    between atoms: _479  and  _481
REMARK  193  A    between atoms: _481  and  _482
REMARK  194  A    between atoms: _481  and  _484
REMARK  195  A    between atoms: _484  and  _485
REMARK  196  A    between atoms: _485  and  _486
REMARK  197  A    between atoms: _489  and  _491
REMARK  198  A    between atoms: _491  and  _492
REMARK  199  A    between atoms: _491  and  _494
REMARK  200  A    between atoms: _494  and  _495
REMARK  201  A    between atoms: _498  and  _500
REMARK  202  A    between atoms: _500  and  _501
REMARK  203  A    between atoms: _500  and  _503
REMARK  204  A    between atoms: _503  and  _504
REMARK  205  A    between atoms: _514  and  _516
REMARK  206  A    between atoms: _516  and  _517
REMARK  207  A    between atoms: _516  and  _519
REMARK  208  A    between atoms: _522  and  _524
REMARK  209  A    between atoms: _524  and  _525
REMARK  210  A    between atoms: _524  and  _527
REMARK  211  A    between atoms: _527  and  _528
REMARK                            x       y       z     vdW  Elec       q    Type
REMARK                         _______ _______ _______ _____ _____    ______ ____
ROOT
ATOM      1  C   TYR A   2      -9.112  37.268 -18.292  0.00  0.00    +0.241 C 
ATOM      2  O   TYR A   2      -8.040  36.826 -17.865  0.00  0.00    -0.273 OA
ATOM      3  N   TYR A   3      -9.206  38.398 -18.995  0.00  0.00    -0.297 N 
ATOM      4  H   TYR A   3     -10.113  38.644 -19.441  0.00  0.00    +0.150 HD
ENDROOT
BRANCH   3   5
ATOM      5  CA  TYR A   3      -8.076  39.291 -19.152  0.00  0.00    +0.153 C 
BRANCH   5   6
ATOM      6  C   TYR A   3      -8.105  40.276 -18.008  0.00  0.00    +0.241 C 
ATOM      7  N   LEU A   4      -6.927  40.719 -17.569  0.00  0.00    -0.298 N 
ATOM      8  H   LEU A   4      -6.046  40.276 -17.900  0.00  0.00    +0.150 HD
ATOM      9  O   TYR A   3      -9.181  40.750 -17.657  0.00  0.00    -0.273 OA
BRANCH   7  10
ATOM     10  CA  LEU A   4      -6.877  41.831 -16.620  0.00  0.00    +0.137 C 
BRANCH  10  11
ATOM     11  C   LEU A   4      -7.015  43.075 -17.487  0.00  0.00    +0.227 C 
ATOM     12  O   LEU A   4      -6.150  43.335 -18.309  0.00  0.00    -0.286 OA
ENDBRANCH  10  11
BRANCH  10  13
ATOM     13  CB  LEU A   4      -5.558  41.859 -15.851  0.00  0.00    +0.028 C 
BRANCH  13  14
ATOM     14  CG  LEU A   4      -5.298  43.099 -14.964  0.00  0.00    +0.002 C 
ATOM     15  CD2 LEU A   4      -6.418  43.210 -13.944  0.00  0.00    +0.000 C 
ATOM     16  CD1 LEU A   4      -3.982  42.878 -14.229  0.00  0.00    +0.000 C 
ENDBRANCH  13  14
ENDBRANCH  10  13
ENDBRANCH   7  10
ENDBRANCH   5   6
BRANCH   5  17
ATOM     17  CB  TYR A   3      -8.206  40.111 -20.428  0.00  0.00    +0.055 C 
BRANCH  17  18
ATOM     18  CG  TYR A   3      -7.953  39.341 -21.692  0.00  0.00    -0.020 A 
ATOM     19  CD2 TYR A   3      -6.659  39.152 -22.169  0.00  0.00    -0.001 A 
ATOM     20  CE2 TYR A   3      -6.431  38.474 -23.357  0.00  0.00    +0.036 A 
ATOM     21  CZ  TYR A   3      -7.502  38.016 -24.083  0.00  0.00    +0.134 A 
ATOM     22  CE1 TYR A   3      -8.789  38.218 -23.643  0.00  0.00    +0.036 A 
ATOM     23  CD1 TYR A   3      -9.006  38.828 -22.428  0.00  0.00    -0.001 A 
BRANCH  21  24
ATOM     24  OH  TYR A   3      -7.307  37.394 -25.297  0.00  0.00    -0.506 OA
ATOM     25  HH  TYR A   3      -6.851  38.017 -25.916  0.00  0.00    +0.292 HD
ENDBRANCH  21  24
ENDBRANCH  17  18
ENDBRANCH   5  17
ENDBRANCH   3   5
BRANCH   1  26
ATOM     26  CA  TYR A   2     -10.423  36.514 -18.044  0.00  0.00    +0.153 C 
BRANCH  26  28
ATOM     27  C   GLY A   1     -11.105  34.444 -19.188  0.00  0.00    +0.240 C 
ATOM     28  N   TYR A   2     -10.279  35.098 -18.369  0.00  0.00    -0.297 N 
ATOM     29  H   TYR A   2      -9.492  34.571 -17.940  0.00  0.00    +0.150 HD
ATOM     30  O   GLY A   1     -12.021  34.978 -19.813  0.00  0.00    -0.274 OA
BRANCH  27  31
ATOM     31  CA  GLY A   1     -10.886  32.950 -19.276  0.00  0.00    +0.169 C 
BRANCH  31  32
ATOM     32  N   GLY A   1     -11.749  32.314 -20.262  0.00  0.00    -0.236 NA
ATOM     33  H   GLY A   1     -12.277  32.908 -20.933  0.00  0.00    +0.142 HD
ENDBRANCH  31  32
ENDBRANCH  27  31
ENDBRANCH  26  28
BRANCH  26  34
ATOM     34  CB  TYR A   2     -10.845  36.682 -16.574  0.00  0.00    +0.055 C 
BRANCH  34  35
ATOM     35  CG  TYR A   2     -12.288  36.315 -16.295  0.00  0.00    -0.020 A 
ATOM     36  CD2 TYR A   2     -13.252  37.295 -16.101  0.00  0.00    -0.001 A 
ATOM     37  CE2 TYR A   2     -14.583  36.956 -15.845  0.00  0.00    +0.036 A 
ATOM     38  CZ  TYR A   2     -14.909  35.620 -15.693  0.00  0.00    +0.134 A 
ATOM     39  CE1 TYR A   2     -13.956  34.641 -15.857  0.00  0.00    +0.036 A 
ATOM     40  CD1 TYR A   2     -12.660  34.989 -16.127  0.00  0.00    -0.001 A 
BRANCH  38  41
ATOM     41  OH  TYR A   2     -16.209  35.238 -15.492  0.00  0.00    -0.506 OA
ATOM     42  HH  TYR A   2     -16.776  36.043 -15.391  0.00  0.00    +0.292 HD
ENDBRANCH  38  41
ENDBRANCH  34  35
ENDBRANCH  26  34
ENDBRANCH   1  26
TORSDOF 16
REMARK  Name = ../refined-set-2016/3brn/3brn_pocket.pdb
REMARK  211 active torsions:
REMARK  status: ('A' for Active; 'I' for Inactive)
REMARK    1  A    between atoms: _1  and  _3
REMARK    2  A    between atoms: _3  and  _4
REMARK    3  A    between atoms: _7  and  _9
REMARK    4  A    between atoms: _9  and  _10
REMARK    5  A    between atoms: _9  and  _12
REMARK    6  A    between atoms: _12  and  _13
REMARK    7  A    between atoms: _18  and  _19
REMARK    8  A    between atoms: _21  and  _23
REMARK    9  A    between atoms: _23  and  _24
REMARK   10  A    between atoms: _23  and  _26
REMARK   11  A    between atoms: _26  and  _27
REMARK   12  A    between atoms: _27  and  _28
REMARK   13  A    between atoms: _28  and  _29
REMARK   14  A    between atoms: _29  and  _30
REMARK   15  A    between atoms: _34  and  _36
REMARK   16  A    between atoms: _36  and  _37
REMARK   17  A    between atoms: _36  and  _39
REMARK   18  A    between atoms: _39  and  _40
REMARK   19  A    between atoms: _42  and  _44
REMARK   20  A    between atoms: _44  and  _45
REMARK   21  A    between atoms: _44  and  _47
REMARK   22  A    between atoms: _50  and  _52
REMARK   23  A    between atoms: _52  and  _53
REMARK   24  A    between atoms: _52  and  _55
REMARK   25  A    between atoms: _55  and  _56
REMARK   26  A    between atoms: _61  and  _63
REMARK   27  A    between atoms: _63  and  _64
REMARK   28  A    between atoms: _67  and  _68
REMARK   29  A    between atoms: _73  and  _75
REMARK   30  A    between atoms: _75  and  _76
REMARK   31  A    between atoms: _78  and  _80
REMARK   32  A    between atoms: _80  and  _81
REMARK   33  A    between atoms: _80  and  _83
REMARK   34  A    between atoms: _83  and  _84
REMARK   35  A    between atoms: _89  and  _90
REMARK   36  A    between atoms: _92  and  _94
REMARK   37  A    between atoms: _94  and  _95
REMARK   38  A    between atoms: _94  and  _97
REMARK   39  A    between atoms: _97  and  _98
REMARK   40  A    between atoms: _103  and  _104
REMARK   41  A    between atoms: _106  and  _108
REMARK   42  A    between atoms: _108  and  _109
REMARK   43  A    between atoms: _108  and  _111
REMARK   44  A    between atoms: _111  and  _112
REMARK   45  A    between atoms: _115  and  _117
REMARK   46  A    between atoms: _117  and  _118
REMARK   47  A    between atoms: _117  and  _120
REMARK   48  A    between atoms: _120  and  _121
REMARK   49  A    between atoms: _126  and  _127
REMARK   50  A    between atoms: _129  and  _131
REMARK   51  A    between atoms: _131  and  _132
REMARK   52  A    between atoms: _131  and  _134
REMARK   53  A    between atoms: _137  and  _139
REMARK   54  A    between atoms: _139  and  _140
REMARK   55  A    between atoms: _139  and  _142
REMARK   56  A    between atoms: _142  and  _143
REMARK   57  A    between atoms: _146  and  _148
REMARK   58  A    between atoms: _148  and  _149
REMARK   59  A    between atoms: _148  and  _151
REMARK   60  A    between atoms: _155  and  _156
REMARK   61  A    between atoms: _161  and  _163
REMARK   62  A    between atoms: _163  and  _164
REMARK   63  A    between atoms: _163  and  _166
REMARK   64  A    between atoms: _166  and  _167
REMARK   65  A    between atoms: _170  and  _172
REMARK   66  A    between atoms: _172  and  _173
REMARK   67  A    between atoms: _172  and  _175
REMARK   68  A    between atoms: _175  and  _176
REMARK   69  A    between atoms: _179  and  _181
REMARK   70  A    between atoms: _181  and  _182
REMARK   71  A    between atoms: _181  and  _184
REMARK   72  A    between atoms: _184  and  _185
REMARK   73  A    between atoms: _187  and  _189
REMARK   74  A    between atoms: _189  and  _190
REMARK   75  A    between atoms: _189  and  _192
REMARK   76  A    between atoms: _192  and  _193
REMARK   77  A    between atoms: _199  and  _201
REMARK   78  A    between atoms: _201  and  _202
REMARK   79  A    between atoms: _201  and  _204
REMARK   80  A    between atoms: _204  and  _205
REMARK   81  A    between atoms: _208  and  _210
REMARK   82  A    between atoms: _210  and  _211
REMARK   83  A    between atoms: _210  and  _213
REMARK   84  A    between atoms: _213  and  _214
REMARK   85  A    between atoms: _219  and  _220
REMARK   86  A    between atoms: _222  and  _224
REMARK   87  A    between atoms: _224  and  _225
REMARK   88  A    between atoms: _228  and  _230
REMARK   89  A    between atoms: _230  and  _231
REMARK   90  A    between atoms: _230  and  _233
REMARK   91  A    between atoms: _233  and  _234
REMARK   92  A    between atoms: _237  and  _239
REMARK   93  A    between atoms: _239  and  _240
REMARK   94  A    between atoms: _239  and  _242
REMARK   95  A    between atoms: _245  and  _247
REMARK   96  A    between atoms: _247  and  _248
REMARK   97  A    between atoms: _247  and  _250
REMARK   98  A    between atoms: _250  and  _251
REMARK   99  A    between atoms: _254  and  _256
REMARK  100  A    between atoms: _256  and  _257
REMARK  101  A    between atoms: _256  and  _259
REMARK  102  A    between atoms: _262  and  _264
REMARK  103  A    between atoms: _264  and  _265
REMARK  104  A    between atoms: _264  and  _267
REMARK  105  A    between atoms: _267  and  _268
REMARK  106  A    between atoms: _271  and  _273
REMARK  107  A    between atoms: _273  and  _274
REMARK  108  A    between atoms: _273  and  _276
REMARK  109  A    between atoms: _276  and  _277
REMARK  110  A    between atoms: _277  and  _278
REMARK  111  A    between atoms: _281  and  _283
REMARK  112  A    between atoms: _283  and  _284
REMARK  113  A    between atoms: _283  and  _286
REMARK  114  A    between atoms: _289  and  _291
REMARK  115  A    between atoms: _291  and  _292
REMARK  116  A    between atoms: _291  and  _294
REMARK  117  A    between atoms: _294  and  _295
REMARK  118  A    between atoms: _298  and  _300
REMARK  119  A    between atoms: _300  and  _301
REMARK  120  A    between atoms: _304  and  _306
REMARK  121  A    between atoms: _306  and  _307
REMARK  122  A    between atoms: _306  and  _309
REMARK  123  A    between atoms: _309  and  _310
REMARK  124  A    between atoms: _313  and  _315
REMARK  125  A    between atoms: _315  and  _316
REMARK  126  A    between atoms: _315  and  _318
REMARK  127  A    between atoms: _318  and  _319
REMARK  128  A    between atoms: _321  and  _323
REMARK  129  A    between atoms: _323  and  _324
REMARK  130  A    between atoms: _326  and  _328
REMARK  131  A    between atoms: _328  and  _329
REMARK  132  A    between atoms: _328  and  _331
REMARK  133  A    between atoms: _331  and  _332
REMARK  134  A    between atoms: _335  and  _337
REMARK  135  A    between atoms: _337  and  _338
REMARK  136  A    between atoms: _337  and  _340
REMARK  137  A    between atoms: _340  and  _341
REMARK  138  A    between atoms: _344  and  _346
REMARK  139  A    between atoms: _346  and  _347
REMARK  140  A    between atoms: _346  and  _349
REMARK  141  A    between atoms: _349  and  _350
REMARK  142  A    between atoms: _353  and  _355
REMARK  143  A    between atoms: _355  and  _356
REMARK  144  A    between atoms: _355  and  _358
REMARK  145  A    between atoms: _361  and  _363
REMARK  146  A    between atoms: _363  and  _364
REMARK  147  A    between atoms: _363  and  _366
REMARK  148  A    between atoms: _366  and  _367
REMARK  149  A    between atoms: _369  and  _371
REMARK  150  A    between atoms: _371  and  _372
REMARK  151  A    between atoms: _371  and  _374
REMARK  152  A    between atoms: _374  and  _375
REMARK  153  A    between atoms: _378  and  _380
REMARK  154  A    between atoms: _380  and  _381
REMARK  155  A    between atoms: _380  and  _383
REMARK  156  A    between atoms: _383  and  _384
REMARK  157  A    between atoms: _389  and  _390
REMARK  158  A    between atoms: _392  and  _394
REMARK  159  A    between atoms: _394  and  _395
REMARK  160  A    between atoms: _394  and  _397
REMARK  161  A    between atoms: _397  and  _398
REMARK  162  A    between atoms: _398  and  _399
REMARK  163  A    between atoms: _399  and  _400
REMARK  164  A    between atoms: _409  and  _411
REMARK  165  A    between atoms: _411  and  _412
REMARK  166  A    between atoms: _411  and  _414
REMARK  167  A    between atoms: _414  and  _415
REMARK  168  A    between atoms: _417  and  _419
REMARK  169  A    between atoms: _419  and  _420
REMARK  170  A    between atoms: _419  and  _422
REMARK  171  A    between atoms: _424  and  _426
REMARK  172  A    between atoms: _426  and  _427
REMARK  173  A    between atoms: _426  and  _429
REMARK  174  A    between atoms: _429  and  _430
REMARK  175  A    between atoms: _433  and  _435
REMARK  176  A    between atoms: _435  and  _436
REMARK  177  A    between atoms: _435  and  _438
REMARK  178  A    between atoms: _441  and  _443
REMARK  179  A    between atoms: _443  and  _444
REMARK  180  A    between atoms: _443  and  _446
REMARK  181  A    between atoms: _446  and  _447
REMARK  182  A    between atoms: _447  and  _448
REMARK  183  A    between atoms: _450  and  _452
REMARK  184  A    between atoms: _452  and  _453
REMARK  185  A    between atoms: _452  and  _455
REMARK  186  A    between atoms: _455  and  _456
REMARK  187  A    between atoms: _456  and  _457
REMARK  188  A    between atoms: _457  and  _458
REMARK  189  A    between atoms: _467  and  _469
REMARK  190  A    between atoms: _469  and  _470
REMARK  191  A    between atoms: _473  and  _474
REMARK  192  A    between atoms: _479  and  _481
REMARK  193  A    between atoms: _481  and  _482
REMARK  194  A    between atoms: _481  and  _484
REMARK  195  A    between atoms: _484  and  _485
REMARK  196  A    between atoms: _485  and  _486
REMARK  197  A    between atoms: _489  and  _491
REMARK  198  A    between atoms: _491  and  _492
REMARK  199  A    between atoms: _491  and  _494
REMARK  200  A    between atoms: _494  and  _495
REMARK  201  A    between atoms: _498  and  _500
REMARK  202  A    between atoms: _500  and  _501
REMARK  203  A    between atoms: _500  and  _503
REMARK  204  A    between atoms: _503  and  _504
REMARK  205  A    between atoms: _514  and  _516
REMARK  206  A    between atoms: _516  and  _517
REMARK  207  A    between atoms: _516  and  _519
REMARK  208  A    between atoms: _522  and  _524
REMARK  209  A    between atoms: _524  and  _525
REMARK  210  A    between atoms: _524  and  _527
REMARK  211  A    between atoms: _527  and  _528
REMARK                            x       y       z     vdW  Elec       q    Type
REMARK                         _______ _______ _______ _____ _____    ______ ____
ROOT
ATOM      1  C   VAL A   2      -7.174  32.863 -16.984  0.00  0.00    +0.241 C 
ATOM      2  N   LEU A   3      -7.060  31.533 -16.960  0.00  0.00    -0.297 N 
ATOM      3  H   LEU A   3      -6.225  31.102 -16.515  0.00  0.00    +0.150 HD
ATOM      4  O   VAL A   2      -7.984  33.459 -17.688  0.00  0.00    -0.273 OA
ENDROOT
BRANCH   2   5
ATOM      5  CA  LEU A   3      -8.080  30.673 -17.543  0.00  0.00    +0.149 C 
BRANCH   5   6
ATOM      6  C   LEU A   3      -8.926  30.128 -16.398  0.00  0.00    +0.241 C 
ATOM      7  O   LEU A   3      -8.390  29.840 -15.324  0.00  0.00    -0.273 OA
ATOM      8  N   VAL A   4     -10.232  29.974 -16.618  0.00  0.00    -0.297 N 
ATOM      9  H   VAL A   4     -10.652  30.326 -17.502  0.00  0.00    +0.150 HD
BRANCH   8  10
ATOM     10  CA  VAL A   4     -11.080  29.310 -15.620  0.00  0.00    +0.149 C 
BRANCH  10  11
ATOM     11  C   VAL A   4     -10.588  27.857 -15.412  0.00  0.00    +0.244 C 
ATOM     12  N   PRO A   5     -10.600  27.367 -14.157  0.00  0.00    -0.273 N 
ATOM     13  CD  PRO A   5     -11.168  27.959 -12.936  0.00  0.00    +0.094 C 
ATOM     14  CG  PRO A   5     -10.488  27.194 -11.858  0.00  0.00    +0.024 C 
ATOM     15  CB  PRO A   5     -10.295  25.828 -12.405  0.00  0.00    +0.030 C 
ATOM     16  CA  PRO A   5      -9.996  26.058 -13.890  0.00  0.00    +0.140 C 
ATOM     17  O   VAL A   4     -10.031  27.259 -16.336  0.00  0.00    -0.273 OA
BRANCH  16  18
ATOM     18  C   PRO A   5     -10.653  24.980 -14.738  0.00  0.00    +0.227 C 
ATOM     19  O   PRO A   5     -11.790  25.154 -15.193  0.00  0.00    -0.286 OA
ENDBRANCH  16  18
ENDBRANCH  10  11
BRANCH  10  20
ATOM     20  CB  VAL A   4     -12.586  29.351 -16.007  0.00  0.00    +0.027 C 
ATOM     21  CG2 VAL A   4     -12.988  30.744 -16.472  0.00  0.00    +0.002 C 
ATOM     22  CG1 VAL A   4     -12.922  28.285 -17.056  0.00  0.00    +0.002 C 
ENDBRANCH  10  20
ENDBRANCH   8  10
ENDBRANCH   5   6
BRANCH   5  23
ATOM     23  CB  LEU A   3      -7.431  29.494 -18.288  0.00  0.00    +0.029 C 
BRANCH  23  24
ATOM     24  CG  LEU A   3      -6.710  29.782 -19.613  0.00  0.00    +0.002 C 
ATOM     25  CD2 LEU A   3      -6.325  28.462 -20.305  0.00  0.00    +0.000 C 
ATOM     26  CD1 LEU A   3      -7.598  30.593 -20.531  0.00  0.00    +0.000 C 
ENDBRANCH  23  24
ENDBRANCH   5  23
ENDBRANCH   2   5
BRANCH   1  27
ATOM     27  CA  VAL A   2      -6.181  33.645 -16.147  0.00  0.00    +0.148 C 
BRANCH  27  30
ATOM     28  C   TYR A   1      -4.861  35.405 -17.187  0.00  0.00    +0.239 C 
ATOM     29  O   TYR A   1      -3.803  35.004 -16.729  0.00  0.00    -0.274 OA
ATOM     30  N   VAL A   2      -6.039  34.927 -16.810  0.00  0.00    -0.297 N 
ATOM     31  H   VAL A   2      -6.892  35.492 -16.997  0.00  0.00    +0.150 HD
BRANCH  28  32
ATOM     32  CA  TYR A   1      -4.917  36.651 -18.067  0.00  0.00    +0.149 C 
BRANCH  32  33
ATOM     33  N   TYR A   1      -3.640  37.360 -18.070  0.00  0.00    -0.238 NA
ATOM     34  H   TYR A   1      -2.760  36.837 -17.888  0.00  0.00    +0.142 HD
ENDBRANCH  32  33
BRANCH  32  35
ATOM     35  CB  TYR A   1      -5.289  36.205 -19.489  0.00  0.00    +0.053 C 
BRANCH  35  36
ATOM     36  CG  TYR A   1      -4.483  34.997 -19.952  0.00  0.00    -0.020 A 
ATOM     37  CD2 TYR A   1      -4.957  33.694 -19.756  0.00  0.00    -0.001 A 
ATOM     38  CE2 TYR A   1      -4.186  32.577 -20.127  0.00  0.00    +0.036 A 
ATOM     39  CZ  TYR A   1      -2.918  32.781 -20.663  0.00  0.00    +0.134 A 
ATOM     40  CE1 TYR A   1      -2.453  34.064 -20.896  0.00  0.00    +0.036 A 
ATOM     41  CD1 TYR A   1      -3.220  35.159 -20.526  0.00  0.00    -0.001 A 
BRANCH  39  42
ATOM     42  OH  TYR A   1      -2.129  31.711 -21.047  0.00  0.00    -0.506 OA
ATOM     43  HH  TYR A   1      -1.269  32.048 -21.402  0.00  0.00    +0.292 HD
ENDBRANCH  39  42
ENDBRANCH  35  36
ENDBRANCH  32  35
ENDBRANCH  28  32
ENDBRANCH  27  30
BRANCH  27  44
ATOM     44  CB  VAL A   2      -6.757  33.783 -14.704  0.00  0.00    +0.027 C 
ATOM     45  CG2 VAL A   2      -5.766  34.466 -13.790  0.00  0.00    +0.002 C 
ATOM     46  CG1 VAL A   2      -8.124  34.505 -14.704  0.00  0.00    +0.002 C 
ENDBRANCH  27  44
ENDBRANCH   1  27
TORSDOF 16
REMARK  Name = ../refined-set-2016/3brn/3brn_pocket.pdb
REMARK  211 active torsions:
REMARK  status: ('A' for Active; 'I' for Inactive)
REMARK    1  A    between atoms: _1  and  _3
REMARK    2  A    between atoms: _3  and  _4
REMARK    3  A    between atoms: _7  and  _9
REMARK    4  A    between atoms: _9  and  _10
REMARK    5  A    between atoms: _9  and  _12
REMARK    6  A    between atoms: _12  and  _13
REMARK    7  A    between atoms: _18  and  _19
REMARK    8  A    between atoms: _21  and  _23
REMARK    9  A    between atoms: _23  and  _24
REMARK   10  A    between atoms: _23  and  _26
REMARK   11  A    between atoms: _26  and  _27
REMARK   12  A    between atoms: _27  and  _28
REMARK   13  A    between atoms: _28  and  _29
REMARK   14  A    between atoms: _29  and  _30
REMARK   15  A    between atoms: _34  and  _36
REMARK   16  A    between atoms: _36  and  _37
REMARK   17  A    between atoms: _36  and  _39
REMARK   18  A    between atoms: _39  and  _40
REMARK   19  A    between atoms: _42  and  _44
REMARK   20  A    between atoms: _44  and  _45
REMARK   21  A    between atoms: _44  and  _47
REMARK   22  A    between atoms: _50  and  _52
REMARK   23  A    between atoms: _52  and  _53
REMARK   24  A    between atoms: _52  and  _55
REMARK   25  A    between atoms: _55  and  _56
REMARK   26  A    between atoms: _61  and  _63
REMARK   27  A    between atoms: _63  and  _64
REMARK   28  A    between atoms: _67  and  _68
REMARK   29  A    between atoms: _73  and  _75
REMARK   30  A    between atoms: _75  and  _76
REMARK   31  A    between atoms: _78  and  _80
REMARK   32  A    between atoms: _80  and  _81
REMARK   33  A    between atoms: _80  and  _83
REMARK   34  A    between atoms: _83  and  _84
REMARK   35  A    between atoms: _89  and  _90
REMARK   36  A    between atoms: _92  and  _94
REMARK   37  A    between atoms: _94  and  _95
REMARK   38  A    between atoms: _94  and  _97
REMARK   39  A    between atoms: _97  and  _98
REMARK   40  A    between atoms: _103  and  _104
REMARK   41  A    between atoms: _106  and  _108
REMARK   42  A    between atoms: _108  and  _109
REMARK   43  A    between atoms: _108  and  _111
REMARK   44  A    between atoms: _111  and  _112
REMARK   45  A    between atoms: _115  and  _117
REMARK   46  A    between atoms: _117  and  _118
REMARK   47  A    between atoms: _117  and  _120
REMARK   48  A    between atoms: _120  and  _121
REMARK   49  A    between atoms: _126  and  _127
REMARK   50  A    between atoms: _129  and  _131
REMARK   51  A    between atoms: _131  and  _132
REMARK   52  A    between atoms: _131  and  _134
REMARK   53  A    between atoms: _137  and  _139
REMARK   54  A    between atoms: _139  and  _140
REMARK   55  A    between atoms: _139  and  _142
REMARK   56  A    between atoms: _142  and  _143
REMARK   57  A    between atoms: _146  and  _148
REMARK   58  A    between atoms: _148  and  _149
REMARK   59  A    between atoms: _148  and  _151
REMARK   60  A    between atoms: _155  and  _156
REMARK   61  A    between atoms: _161  and  _163
REMARK   62  A    between atoms: _163  and  _164
REMARK   63  A    between atoms: _163  and  _166
REMARK   64  A    between atoms: _166  and  _167
REMARK   65  A    between atoms: _170  and  _172
REMARK   66  A    between atoms: _172  and  _173
REMARK   67  A    between atoms: _172  and  _175
REMARK   68  A    between atoms: _175  and  _176
REMARK   69  A    between atoms: _179  and  _181
REMARK   70  A    between atoms: _181  and  _182
REMARK   71  A    between atoms: _181  and  _184
REMARK   72  A    between atoms: _184  and  _185
REMARK   73  A    between atoms: _187  and  _189
REMARK   74  A    between atoms: _189  and  _190
REMARK   75  A    between atoms: _189  and  _192
REMARK   76  A    between atoms: _192  and  _193
REMARK   77  A    between atoms: _199  and  _201
REMARK   78  A    between atoms: _201  and  _202
REMARK   79  A    between atoms: _201  and  _204
REMARK   80  A    between atoms: _204  and  _205
REMARK   81  A    between atoms: _208  and  _210
REMARK   82  A    between atoms: _210  and  _211
REMARK   83  A    between atoms: _210  and  _213
REMARK   84  A    between atoms: _213  and  _214
REMARK   85  A    between atoms: _219  and  _220
REMARK   86  A    between atoms: _222  and  _224
REMARK   87  A    between atoms: _224  and  _225
REMARK   88  A    between atoms: _228  and  _230
REMARK   89  A    between atoms: _230  and  _231
REMARK   90  A    between atoms: _230  and  _233
REMARK   91  A    between atoms: _233  and  _234
REMARK   92  A    between atoms: _237  and  _239
REMARK   93  A    between atoms: _239  and  _240
REMARK   94  A    between atoms: _239  and  _242
REMARK   95  A    between atoms: _245  and  _247
REMARK   96  A    between atoms: _247  and  _248
REMARK   97  A    between atoms: _247  and  _250
REMARK   98  A    between atoms: _250  and  _251
REMARK   99  A    between atoms: _254  and  _256
REMARK  100  A    between atoms: _256  and  _257
REMARK  101  A    between atoms: _256  and  _259
REMARK  102  A    between atoms: _262  and  _264
REMARK  103  A    between atoms: _264  and  _265
REMARK  104  A    between atoms: _264  and  _267
REMARK  105  A    between atoms: _267  and  _268
REMARK  106  A    between atoms: _271  and  _273
REMARK  107  A    between atoms: _273  and  _274
REMARK  108  A    between atoms: _273  and  _276
REMARK  109  A    between atoms: _276  and  _277
REMARK  110  A    between atoms: _277  and  _278
REMARK  111  A    between atoms: _281  and  _283
REMARK  112  A    between atoms: _283  and  _284
REMARK  113  A    between atoms: _283  and  _286
REMARK  114  A    between atoms: _289  and  _291
REMARK  115  A    between atoms: _291  and  _292
REMARK  116  A    between atoms: _291  and  _294
REMARK  117  A    between atoms: _294  and  _295
REMARK  118  A    between atoms: _298  and  _300
REMARK  119  A    between atoms: _300  and  _301
REMARK  120  A    between atoms: _304  and  _306
REMARK  121  A    between atoms: _306  and  _307
REMARK  122  A    between atoms: _306  and  _309
REMARK  123  A    between atoms: _309  and  _310
REMARK  124  A    between atoms: _313  and  _315
REMARK  125  A    between atoms: _315  and  _316
REMARK  126  A    between atoms: _315  and  _318
REMARK  127  A    between atoms: _318  and  _319
REMARK  128  A    between atoms: _321  and  _323
REMARK  129  A    between atoms: _323  and  _324
REMARK  130  A    between atoms: _326  and  _328
REMARK  131  A    between atoms: _328  and  _329
REMARK  132  A    between atoms: _328  and  _331
REMARK  133  A    between atoms: _331  and  _332
REMARK  134  A    between atoms: _335  and  _337
REMARK  135  A    between atoms: _337  and  _338
REMARK  136  A    between atoms: _337  and  _340
REMARK  137  A    between atoms: _340  and  _341
REMARK  138  A    between atoms: _344  and  _346
REMARK  139  A    between atoms: _346  and  _347
REMARK  140  A    between atoms: _346  and  _349
REMARK  141  A    between atoms: _349  and  _350
REMARK  142  A    between atoms: _353  and  _355
REMARK  143  A    between atoms: _355  and  _356
REMARK  144  A    between atoms: _355  and  _358
REMARK  145  A    between atoms: _361  and  _363
REMARK  146  A    between atoms: _363  and  _364
REMARK  147  A    between atoms: _363  and  _366
REMARK  148  A    between atoms: _366  and  _367
REMARK  149  A    between atoms: _369  and  _371
REMARK  150  A    between atoms: _371  and  _372
REMARK  151  A    between atoms: _371  and  _374
REMARK  152  A    between atoms: _374  and  _375
REMARK  153  A    between atoms: _378  and  _380
REMARK  154  A    between atoms: _380  and  _381
REMARK  155  A    between atoms: _380  and  _383
REMARK  156  A    between atoms: _383  and  _384
REMARK  157  A    between atoms: _389  and  _390
REMARK  158  A    between atoms: _392  and  _394
REMARK  159  A    between atoms: _394  and  _395
REMARK  160  A    between atoms: _394  and  _397
REMARK  161  A    between atoms: _397  and  _398
REMARK  162  A    between atoms: _398  and  _399
REMARK  163  A    between atoms: _399  and  _400
REMARK  164  A    between atoms: _409  and  _411
REMARK  165  A    between atoms: _411  and  _412
REMARK  166  A    between atoms: _411  and  _414
REMARK  167  A    between atoms: _414  and  _415
REMARK  168  A    between atoms: _417  and  _419
REMARK  169  A    between atoms: _419  and  _420
REMARK  170  A    between atoms: _419  and  _422
REMARK  171  A    between atoms: _424  and  _426
REMARK  172  A    between atoms: _426  and  _427
REMARK  173  A    between atoms: _426  and  _429
REMARK  174  A    between atoms: _429  and  _430
REMARK  175  A    between atoms: _433  and  _435
REMARK  176  A    between atoms: _435  and  _436
REMARK  177  A    between atoms: _435  and  _438
REMARK  178  A    between atoms: _441  and  _443
REMARK  179  A    between atoms: _443  and  _444
REMARK  180  A    between atoms: _443  and  _446
REMARK  181  A    between atoms: _446  and  _447
REMARK  182  A    between atoms: _447  and  _448
REMARK  183  A    between atoms: _450  and  _452
REMARK  184  A    between atoms: _452  and  _453
REMARK  185  A    between atoms: _452  and  _455
REMARK  186  A    between atoms: _455  and  _456
REMARK  187  A    between atoms: _456  and  _457
REMARK  188  A    between atoms: _457  and  _458
REMARK  189  A    between atoms: _467  and  _469
REMARK  190  A    between atoms: _469  and  _470
REMARK  191  A    between atoms: _473  and  _474
REMARK  192  A    between atoms: _479  and  _481
REMARK  193  A    between atoms: _481  and  _482
REMARK  194  A    between atoms: _481  and  _484
REMARK  195  A    between atoms: _484  and  _485
REMARK  196  A    between atoms: _485  and  _486
REMARK  197  A    between atoms: _489  and  _491
REMARK  198  A    between atoms: _491  and  _492
REMARK  199  A    between atoms: _491  and  _494
REMARK  200  A    between atoms: _494  and  _495
REMARK  201  A    between atoms: _498  and  _500
REMARK  202  A    between atoms: _500  and  _501
REMARK  203  A    between atoms: _500  and  _503
REMARK  204  A    between atoms: _503  and  _504
REMARK  205  A    between atoms: _514  and  _516
REMARK  206  A    between atoms: _516  and  _517
REMARK  207  A    between atoms: _516  and  _519
REMARK  208  A    between atoms: _522  and  _524
REMARK  209  A    between atoms: _524  and  _525
REMARK  210  A    between atoms: _524  and  _527
REMARK  211  A    between atoms: _527  and  _528
REMARK                            x       y       z     vdW  Elec       q    Type
REMARK                         _______ _______ _______ _____ _____    ______ ____
ROOT
ATOM      1  CA  LEU A   1     -14.845  24.683  -8.155  0.00  0.00    +0.133 C 
ENDROOT
BRANCH   1   2
ATOM      2  N   LEU A   1     -15.141  24.434  -9.559  0.00  0.00    -0.239 NA
ATOM      3  H   LEU A   1     -15.205  25.244 -10.208  0.00  0.00    +0.142 HD
ENDBRANCH   1   2
BRANCH   1   4
ATOM      4  C   LEU A   1     -16.142  24.797  -7.373  0.00  0.00    +0.224 C 
ATOM      5  O   LEU A   1     -17.136  25.320  -7.881  0.00  0.00    -0.287 OA
ENDBRANCH   1   4
BRANCH   1   6
ATOM      6  CB  LEU A   1     -14.085  26.003  -8.000  0.00  0.00    +0.025 C 
BRANCH   6   7
ATOM      7  CG  LEU A   1     -12.561  25.974  -7.961  0.00  0.00    +0.002 C 
ATOM      8  CD2 LEU A   1     -12.103  25.118  -6.792  0.00  0.00    +0.000 C 
ATOM      9  CD1 LEU A   1     -12.029  27.419  -7.835  0.00  0.00    +0.000 C 
ENDBRANCH   6   7
ENDBRANCH   1   6
TORSDOF 4
REMARK  Name = ../refined-set-2016/3brn/3brn_pocket.pdb
REMARK  211 active torsions:
REMARK  status: ('A' for Active; 'I' for Inactive)
REMARK    1  A    between atoms: _1  and  _3
REMARK    2  A    between atoms: _3  and  _4
REMARK    3  A    between atoms: _7  and  _9
REMARK    4  A    between atoms: _9  and  _10
REMARK    5  A    between atoms: _9  and  _12
REMARK    6  A    between atoms: _12  and  _13
REMARK    7  A    between atoms: _18  and  _19
REMARK    8  A    between atoms: _21  and  _23
REMARK    9  A    between atoms: _23  and  _24
REMARK   10  A    between atoms: _23  and  _26
REMARK   11  A    between atoms: _26  and  _27
REMARK   12  A    between atoms: _27  and  _28
REMARK   13  A    between atoms: _28  and  _29
REMARK   14  A    between atoms: _29  and  _30
REMARK   15  A    between atoms: _34  and  _36
REMARK   16  A    between atoms: _36  and  _37
REMARK   17  A    between atoms: _36  and  _39
REMARK   18  A    between atoms: _39  and  _40
REMARK   19  A    between atoms: _42  and  _44
REMARK   20  A    between atoms: _44  and  _45
REMARK   21  A    between atoms: _44  and  _47
REMARK   22  A    between atoms: _50  and  _52
REMARK   23  A    between atoms: _52  and  _53
REMARK   24  A    between atoms: _52  and  _55
REMARK   25  A    between atoms: _55  and  _56
REMARK   26  A    between atoms: _61  and  _63
REMARK   27  A    between atoms: _63  and  _64
REMARK   28  A    between atoms: _67  and  _68
REMARK   29  A    between atoms: _73  and  _75
REMARK   30  A    between atoms: _75  and  _76
REMARK   31  A    between atoms: _78  and  _80
REMARK   32  A    between atoms: _80  and  _81
REMARK   33  A    between atoms: _80  and  _83
REMARK   34  A    between atoms: _83  and  _84
REMARK   35  A    between atoms: _89  and  _90
REMARK   36  A    between atoms: _92  and  _94
REMARK   37  A    between atoms: _94  and  _95
REMARK   38  A    between atoms: _94  and  _97
REMARK   39  A    between atoms: _97  and  _98
REMARK   40  A    between atoms: _103  and  _104
REMARK   41  A    between atoms: _106  and  _108
REMARK   42  A    between atoms: _108  and  _109
REMARK   43  A    between atoms: _108  and  _111
REMARK   44  A    between atoms: _111  and  _112
REMARK   45  A    between atoms: _115  and  _117
REMARK   46  A    between atoms: _117  and  _118
REMARK   47  A    between atoms: _117  and  _120
REMARK   48  A    between atoms: _120  and  _121
REMARK   49  A    between atoms: _126  and  _127
REMARK   50  A    between atoms: _129  and  _131
REMARK   51  A    between atoms: _131  and  _132
REMARK   52  A    between atoms: _131  and  _134
REMARK   53  A    between atoms: _137  and  _139
REMARK   54  A    between atoms: _139  and  _140
REMARK   55  A    between atoms: _139  and  _142
REMARK   56  A    between atoms: _142  and  _143
REMARK   57  A    between atoms: _146  and  _148
REMARK   58  A    between atoms: _148  and  _149
REMARK   59  A    between atoms: _148  and  _151
REMARK   60  A    between atoms: _155  and  _156
REMARK   61  A    between atoms: _161  and  _163
REMARK   62  A    between atoms: _163  and  _164
REMARK   63  A    between atoms: _163  and  _166
REMARK   64  A    between atoms: _166  and  _167
REMARK   65  A    between atoms: _170  and  _172
REMARK   66  A    between atoms: _172  and  _173
REMARK   67  A    between atoms: _172  and  _175
REMARK   68  A    between atoms: _175  and  _176
REMARK   69  A    between atoms: _179  and  _181
REMARK   70  A    between atoms: _181  and  _182
REMARK   71  A    between atoms: _181  and  _184
REMARK   72  A    between atoms: _184  and  _185
REMARK   73  A    between atoms: _187  and  _189
REMARK   74  A    between atoms: _189  and  _190
REMARK   75  A    between atoms: _189  and  _192
REMARK   76  A    between atoms: _192  and  _193
REMARK   77  A    between atoms: _199  and  _201
REMARK   78  A    between atoms: _201  and  _202
REMARK   79  A    between atoms: _201  and  _204
REMARK   80  A    between atoms: _204  and  _205
REMARK   81  A    between atoms: _208  and  _210
REMARK   82  A    between atoms: _210  and  _211
REMARK   83  A    between atoms: _210  and  _213
REMARK   84  A    between atoms: _213  and  _214
REMARK   85  A    between atoms: _219  and  _220
REMARK   86  A    between atoms: _222  and  _224
REMARK   87  A    between atoms: _224  and  _225
REMARK   88  A    between atoms: _228  and  _230
REMARK   89  A    between atoms: _230  and  _231
REMARK   90  A    between atoms: _230  and  _233
REMARK   91  A    between atoms: _233  and  _234
REMARK   92  A    between atoms: _237  and  _239
REMARK   93  A    between atoms: _239  and  _240
REMARK   94  A    between atoms: _239  and  _242
REMARK   95  A    between atoms: _245  and  _247
REMARK   96  A    between atoms: _247  and  _248
REMARK   97  A    between atoms: _247  and  _250
REMARK   98  A    between atoms: _250  and  _251
REMARK   99  A    between atoms: _254  and  _256
REMARK  100  A    between atoms: _256  and  _257
REMARK  101  A    between atoms: _256  and  _259
REMARK  102  A    between atoms: _262  and  _264
REMARK  103  A    between atoms: _264  and  _265
REMARK  104  A    between atoms: _264  and  _267
REMARK  105  A    between atoms: _267  and  _268
REMARK  106  A    between atoms: _271  and  _273
REMARK  107  A    between atoms: _273  and  _274
REMARK  108  A    between atoms: _273  and  _276
REMARK  109  A    between atoms: _276  and  _277
REMARK  110  A    between atoms: _277  and  _278
REMARK  111  A    between atoms: _281  and  _283
REMARK  112  A    between atoms: _283  and  _284
REMARK  113  A    between atoms: _283  and  _286
REMARK  114  A    between atoms: _289  and  _291
REMARK  115  A    between atoms: _291  and  _292
REMARK  116  A    between atoms: _291  and  _294
REMARK  117  A    between atoms: _294  and  _295
REMARK  118  A    between atoms: _298  and  _300
REMARK  119  A    between atoms: _300  and  _301
REMARK  120  A    between atoms: _304  and  _306
REMARK  121  A    between atoms: _306  and  _307
REMARK  122  A    between atoms: _306  and  _309
REMARK  123  A    between atoms: _309  and  _310
REMARK  124  A    between atoms: _313  and  _315
REMARK  125  A    between atoms: _315  and  _316
REMARK  126  A    between atoms: _315  and  _318
REMARK  127  A    between atoms: _318  and  _319
REMARK  128  A    between atoms: _321  and  _323
REMARK  129  A    between atoms: _323  and  _324
REMARK  130  A    between atoms: _326  and  _328
REMARK  131  A    between atoms: _328  and  _329
REMARK  132  A    between atoms: _328  and  _331
REMARK  133  A    between atoms: _331  and  _332
REMARK  134  A    between atoms: _335  and  _337
REMARK  135  A    between atoms: _337  and  _338
REMARK  136  A    between atoms: _337  and  _340
REMARK  137  A    between atoms: _340  and  _341
REMARK  138  A    between atoms: _344  and  _346
REMARK  139  A    between atoms: _346  and  _347
REMARK  140  A    between atoms: _346  and  _349
REMARK  141  A    between atoms: _349  and  _350
REMARK  142  A    between atoms: _353  and  _355
REMARK  143  A    between atoms: _355  and  _356
REMARK  144  A    between atoms: _355  and  _358
REMARK  145  A    between atoms: _361  and  _363
REMARK  146  A    between atoms: _363  and  _364
REMARK  147  A    between atoms: _363  and  _366
REMARK  148  A    between atoms: _366  and  _367
REMARK  149  A    between atoms: _369  and  _371
REMARK  150  A    between atoms: _371  and  _372
REMARK  151  A    between atoms: _371  and  _374
REMARK  152  A    between atoms: _374  and  _375
REMARK  153  A    between atoms: _378  and  _380
REMARK  154  A    between atoms: _380  and  _381
REMARK  155  A    between atoms: _380  and  _383
REMARK  156  A    between atoms: _383  and  _384
REMARK  157  A    between atoms: _389  and  _390
REMARK  158  A    between atoms: _392  and  _394
REMARK  159  A    between atoms: _394  and  _395
REMARK  160  A    between atoms: _394  and  _397
REMARK  161  A    between atoms: _397  and  _398
REMARK  162  A    between atoms: _398  and  _399
REMARK  163  A    between atoms: _399  and  _400
REMARK  164  A    between atoms: _409  and  _411
REMARK  165  A    between atoms: _411  and  _412
REMARK  166  A    between atoms: _411  and  _414
REMARK  167  A    between atoms: _414  and  _415
REMARK  168  A    between atoms: _417  and  _419
REMARK  169  A    between atoms: _419  and  _420
REMARK  170  A    between atoms: _419  and  _422
REMARK  171  A    between atoms: _424  and  _426
REMARK  172  A    between atoms: _426  and  _427
REMARK  173  A    between atoms: _426  and  _429
REMARK  174  A    between atoms: _429  and  _430
REMARK  175  A    between atoms: _433  and  _435
REMARK  176  A    between atoms: _435  and  _436
REMARK  177  A    between atoms: _435  and  _438
REMARK  178  A    between atoms: _441  and  _443
REMARK  179  A    between atoms: _443  and  _444
REMARK  180  A    between atoms: _443  and  _446
REMARK  181  A    between atoms: _446  and  _447
REMARK  182  A    between atoms: _447  and  _448
REMARK  183  A    between atoms: _450  and  _452
REMARK  184  A    between atoms: _452  and  _453
REMARK  185  A    between atoms: _452  and  _455
REMARK  186  A    between atoms: _455  and  _456
REMARK  187  A    between atoms: _456  and  _457
REMARK  188  A    between atoms: _457  and  _458
REMARK  189  A    between atoms: _467  and  _469
REMARK  190  A    between atoms: _469  and  _470
REMARK  191  A    between atoms: _473  and  _474
REMARK  192  A    between atoms: _479  and  _481
REMARK  193  A    between atoms: _481  and  _482
REMARK  194  A    between atoms: _481  and  _484
REMARK  195  A    between atoms: _484  and  _485
REMARK  196  A    between atoms: _485  and  _486
REMARK  197  A    between atoms: _489  and  _491
REMARK  198  A    between atoms: _491  and  _492
REMARK  199  A    between atoms: _491  and  _494
REMARK  200  A    between atoms: _494  and  _495
REMARK  201  A    between atoms: _498  and  _500
REMARK  202  A    between atoms: _500  and  _501
REMARK  203  A    between atoms: _500  and  _503
REMARK  204  A    between atoms: _503  and  _504
REMARK  205  A    between atoms: _514  and  _516
REMARK  206  A    between atoms: _516  and  _517
REMARK  207  A    between atoms: _516  and  _519
REMARK  208  A    between atoms: _522  and  _524
REMARK  209  A    between atoms: _524  and  _525
REMARK  210  A    between atoms: _524  and  _527
REMARK  211  A    between atoms: _527  and  _528
REMARK                            x       y       z     vdW  Elec       q    Type
REMARK                         _______ _______ _______ _____ _____    ______ ____
ROOT
ATOM      1  CA  PHE A   3      -5.353  27.044 -12.932  0.00  0.00    +0.153 C 
ENDROOT
BRANCH   1   4
ATOM      2  C   SER A   2      -5.522  25.175 -11.403  0.00  0.00    +0.243 C 
ATOM      3  O   SER A   2      -6.657  24.905 -11.794  0.00  0.00    -0.273 OA
ATOM      4  N   PHE A   3      -4.829  26.219 -11.859  0.00  0.00    -0.297 N 
ATOM      5  H   PHE A   3      -3.904  26.444 -11.441  0.00  0.00    +0.150 HD
BRANCH   2   6
ATOM      6  CA  SER A   2      -4.813  24.270 -10.421  0.00  0.00    +0.178 C 
BRANCH   6   9
ATOM      7  C   THR A   1      -6.288  24.288  -8.484  0.00  0.00    +0.241 C 
ATOM      8  O   THR A   1      -5.804  25.330  -8.050  0.00  0.00    -0.274 OA
ATOM      9  N   SER A   2      -5.807  23.652  -9.547  0.00  0.00    -0.295 N 
ATOM     10  H   SER A   2      -6.146  22.692  -9.762  0.00  0.00    +0.150 HD
BRANCH   7  11
ATOM     11  CA  THR A   1      -7.395  23.585  -7.719  0.00  0.00    +0.172 C 
BRANCH  11  12
ATOM     12  CB  THR A   1      -8.719  23.717  -8.507  0.00  0.00    +0.135 C 
ATOM     13  CG2 THR A   1      -8.845  25.113  -9.111  0.00  0.00    +0.034 C 
BRANCH  12  14
ATOM     14  OG1 THR A   1      -8.767  22.740  -9.555  0.00  0.00    -0.383 OA
ATOM     15  HG1 THR A   1      -9.618  22.833 -10.053  0.00  0.00    +0.210 HD
ENDBRANCH  12  14
ENDBRANCH  11  12
BRANCH  11  16
ATOM     16  N   THR A   1      -7.506  24.172  -6.389  0.00  0.00    -0.236 NA
ATOM     17  H   THR A   1      -7.088  25.105  -6.201  0.00  0.00    +0.142 HD
ENDBRANCH  11  16
ENDBRANCH   7  11
ENDBRANCH   6   9
BRANCH   6  18
ATOM     18  CB  SER A   2      -4.059  23.195 -11.225  0.00  0.00    +0.166 C 
BRANCH  18  19
ATOM     19  OG  SER A   2      -3.355  22.303 -10.387  0.00  0.00    -0.380 OA
ATOM     20  H   SER A   2      -2.886  21.631 -10.942  0.00  0.00    +0.211 HD
ENDBRANCH  18  19
ENDBRANCH   6  18
ENDBRANCH   2   6
ENDBRANCH   1   4
BRANCH   1  21
ATOM     21  C   PHE A   3      -4.194  27.589 -13.733  0.00  0.00    +0.241 C 
ATOM     22  O   PHE A   3      -3.061  27.620 -13.253  0.00  0.00    -0.273 OA
ATOM     23  N   THR A   4      -4.459  27.870 -14.999  0.00  0.00    -0.295 N 
ATOM     24  H   THR A   4      -5.415  27.689 -15.366  0.00  0.00    +0.150 HD
BRANCH  23  25
ATOM     25  CA  THR A   4      -3.451  28.426 -15.895  0.00  0.00    +0.176 C 
BRANCH  25  26
ATOM     26  C   THR A   4      -3.566  29.947 -15.919  0.00  0.00    +0.243 C 
ATOM     27  O   THR A   4      -4.666  30.497 -15.832  0.00  0.00    -0.273 OA
ATOM     28  N   TYR A   5      -2.419  30.610 -15.981  0.00  0.00    -0.298 N 
ATOM     29  H   TYR A   5      -1.529  30.073 -15.950  0.00  0.00    +0.150 HD
BRANCH  28  30
ATOM     30  CA  TYR A   5      -2.359  32.057 -16.091  0.00  0.00    +0.141 C 
BRANCH  30  31
ATOM     31  C   TYR A   5      -1.182  32.424 -16.974  0.00  0.00    +0.227 C 
ATOM     32  O   TYR A   5      -0.343  31.570 -17.311  0.00  0.00    -0.286 OA
ENDBRANCH  30  31
BRANCH  30  33
ATOM     33  CB  TYR A   5      -2.215  32.703 -14.718  0.00  0.00    +0.054 C 
BRANCH  33  34
ATOM     34  CG  TYR A   5      -0.853  32.540 -14.098  0.00  0.00    -0.020 A 
ATOM     35  CD2 TYR A   5      -0.541  31.408 -13.361  0.00  0.00    -0.001 A 
ATOM     36  CE2 TYR A   5       0.709  31.246 -12.797  0.00  0.00    +0.036 A 
ATOM     37  CZ  TYR A   5       1.654  32.238 -12.923  0.00  0.00    +0.134 A 
ATOM     38  CE1 TYR A   5       1.362  33.399 -13.624  0.00  0.00    +0.036 A 
ATOM     39  CD1 TYR A   5       0.112  33.546 -14.205  0.00  0.00    -0.001 A 
BRANCH  37  40
ATOM     40  OH  TYR A   5       2.881  32.078 -12.306  0.00  0.00    -0.506 OA
ATOM     41  HH  TYR A   5       3.008  32.795 -11.635  0.00  0.00    +0.292 HD
ENDBRANCH  37  40
ENDBRANCH  33  34
ENDBRANCH  30  33
ENDBRANCH  28  30
ENDBRANCH  25  26
BRANCH  25  42
ATOM     42  CB  THR A   4      -3.623  27.879 -17.317  0.00  0.00    +0.137 C 
ATOM     43  CG2 THR A   4      -2.522  28.405 -18.255  0.00  0.00    +0.034 C 
BRANCH  42  44
ATOM     44  OG1 THR A   4      -3.586  26.443 -17.286  0.00  0.00    -0.382 OA
ATOM     45  HG1 THR A   4      -3.697  26.091 -18.205  0.00  0.00    +0.210 HD
ENDBRANCH  42  44
ENDBRANCH  25  42
ENDBRANCH  23  25
ENDBRANCH   1  21
BRANCH   1  46
ATOM     46  CB  PHE A   3      -6.222  28.191 -12.396  0.00  0.00    +0.055 C 
BRANCH  46  47
ATOM     47  CG  PHE A   3      -5.442  29.277 -11.713  0.00  0.00    -0.020 A 
ATOM     48  CD2 PHE A   3      -4.952  29.091 -10.434  0.00  0.00    -0.004 A 
ATOM     49  CE2 PHE A   3      -4.185  30.050  -9.832  0.00  0.00    -0.000 A 
ATOM     50  CZ  PHE A   3      -3.962  31.260 -10.468  0.00  0.00    -0.000 A 
ATOM     51  CE1 PHE A   3      -4.451  31.460 -11.749  0.00  0.00    -0.000 A 
ATOM     52  CD1 PHE A   3      -5.201  30.484 -12.351  0.00  0.00    -0.004 A 
ENDBRANCH  46  47
ENDBRANCH   1  46
TORSDOF 21
REMARK  Name = ../refined-set-2016/3brn/3brn_pocket.pdb
REMARK  211 active torsions:
REMARK  status: ('A' for Active; 'I' for Inactive)
REMARK    1  A    between atoms: _1  and  _3
REMARK    2  A    between atoms: _3  and  _4
REMARK    3  A    between atoms: _7  and  _9
REMARK    4  A    between atoms: _9  and  _10
REMARK    5  A    between atoms: _9  and  _12
REMARK    6  A    between atoms: _12  and  _13
REMARK    7  A    between atoms: _18  and  _19
REMARK    8  A    between atoms: _21  and  _23
REMARK    9  A    between atoms: _23  and  _24
REMARK   10  A    between atoms: _23  and  _26
REMARK   11  A    between atoms: _26  and  _27
REMARK   12  A    between atoms: _27  and  _28
REMARK   13  A    between atoms: _28  and  _29
REMARK   14  A    between atoms: _29  and  _30
REMARK   15  A    between atoms: _34  and  _36
REMARK   16  A    between atoms: _36  and  _37
REMARK   17  A    between atoms: _36  and  _39
REMARK   18  A    between atoms: _39  and  _40
REMARK   19  A    between atoms: _42  and  _44
REMARK   20  A    between atoms: _44  and  _45
REMARK   21  A    between atoms: _44  and  _47
REMARK   22  A    between atoms: _50  and  _52
REMARK   23  A    between atoms: _52  and  _53
REMARK   24  A    between atoms: _52  and  _55
REMARK   25  A    between atoms: _55  and  _56
REMARK   26  A    between atoms: _61  and  _63
REMARK   27  A    between atoms: _63  and  _64
REMARK   28  A    between atoms: _67  and  _68
REMARK   29  A    between atoms: _73  and  _75
REMARK   30  A    between atoms: _75  and  _76
REMARK   31  A    between atoms: _78  and  _80
REMARK   32  A    between atoms: _80  and  _81
REMARK   33  A    between atoms: _80  and  _83
REMARK   34  A    between atoms: _83  and  _84
REMARK   35  A    between atoms: _89  and  _90
REMARK   36  A    between atoms: _92  and  _94
REMARK   37  A    between atoms: _94  and  _95
REMARK   38  A    between atoms: _94  and  _97
REMARK   39  A    between atoms: _97  and  _98
REMARK   40  A    between atoms: _103  and  _104
REMARK   41  A    between atoms: _106  and  _108
REMARK   42  A    between atoms: _108  and  _109
REMARK   43  A    between atoms: _108  and  _111
REMARK   44  A    between atoms: _111  and  _112
REMARK   45  A    between atoms: _115  and  _117
REMARK   46  A    between atoms: _117  and  _118
REMARK   47  A    between atoms: _117  and  _120
REMARK   48  A    between atoms: _120  and  _121
REMARK   49  A    between atoms: _126  and  _127
REMARK   50  A    between atoms: _129  and  _131
REMARK   51  A    between atoms: _131  and  _132
REMARK   52  A    between atoms: _131  and  _134
REMARK   53  A    between atoms: _137  and  _139
REMARK   54  A    between atoms: _139  and  _140
REMARK   55  A    between atoms: _139  and  _142
REMARK   56  A    between atoms: _142  and  _143
REMARK   57  A    between atoms: _146  and  _148
REMARK   58  A    between atoms: _148  and  _149
REMARK   59  A    between atoms: _148  and  _151
REMARK   60  A    between atoms: _155  and  _156
REMARK   61  A    between atoms: _161  and  _163
REMARK   62  A    between atoms: _163  and  _164
REMARK   63  A    between atoms: _163  and  _166
REMARK   64  A    between atoms: _166  and  _167
REMARK   65  A    between atoms: _170  and  _172
REMARK   66  A    between atoms: _172  and  _173
REMARK   67  A    between atoms: _172  and  _175
REMARK   68  A    between atoms: _175  and  _176
REMARK   69  A    between atoms: _179  and  _181
REMARK   70  A    between atoms: _181  and  _182
REMARK   71  A    between atoms: _181  and  _184
REMARK   72  A    between atoms: _184  and  _185
REMARK   73  A    between atoms: _187  and  _189
REMARK   74  A    between atoms: _189  and  _190
REMARK   75  A    between atoms: _189  and  _192
REMARK   76  A    between atoms: _192  and  _193
REMARK   77  A    between atoms: _199  and  _201
REMARK   78  A    between atoms: _201  and  _202
REMARK   79  A    between atoms: _201  and  _204
REMARK   80  A    between atoms: _204  and  _205
REMARK   81  A    between atoms: _208  and  _210
REMARK   82  A    between atoms: _210  and  _211
REMARK   83  A    between atoms: _210  and  _213
REMARK   84  A    between atoms: _213  and  _214
REMARK   85  A    between atoms: _219  and  _220
REMARK   86  A    between atoms: _222  and  _224
REMARK   87  A    between atoms: _224  and  _225
REMARK   88  A    between atoms: _228  and  _230
REMARK   89  A    between atoms: _230  and  _231
REMARK   90  A    between atoms: _230  and  _233
REMARK   91  A    between atoms: _233  and  _234
REMARK   92  A    between atoms: _237  and  _239
REMARK   93  A    between atoms: _239  and  _240
REMARK   94  A    between atoms: _239  and  _242
REMARK   95  A    between atoms: _245  and  _247
REMARK   96  A    between atoms: _247  and  _248
REMARK   97  A    between atoms: _247  and  _250
REMARK   98  A    between atoms: _250  and  _251
REMARK   99  A    between atoms: _254  and  _256
REMARK  100  A    between atoms: _256  and  _257
REMARK  101  A    between atoms: _256  and  _259
REMARK  102  A    between atoms: _262  and  _264
REMARK  103  A    between atoms: _264  and  _265
REMARK  104  A    between atoms: _264  and  _267
REMARK  105  A    between atoms: _267  and  _268
REMARK  106  A    between atoms: _271  and  _273
REMARK  107  A    between atoms: _273  and  _274
REMARK  108  A    between atoms: _273  and  _276
REMARK  109  A    between atoms: _276  and  _277
REMARK  110  A    between atoms: _277  and  _278
REMARK  111  A    between atoms: _281  and  _283
REMARK  112  A    between atoms: _283  and  _284
REMARK  113  A    between atoms: _283  and  _286
REMARK  114  A    between atoms: _289  and  _291
REMARK  115  A    between atoms: _291  and  _292
REMARK  116  A    between atoms: _291  and  _294
REMARK  117  A    between atoms: _294  and  _295
REMARK  118  A    between atoms: _298  and  _300
REMARK  119  A    between atoms: _300  and  _301
REMARK  120  A    between atoms: _304  and  _306
REMARK  121  A    between atoms: _306  and  _307
REMARK  122  A    between atoms: _306  and  _309
REMARK  123  A    between atoms: _309  and  _310
REMARK  124  A    between atoms: _313  and  _315
REMARK  125  A    between atoms: _315  and  _316
REMARK  126  A    between atoms: _315  and  _318
REMARK  127  A    between atoms: _318  and  _319
REMARK  128  A    between atoms: _321  and  _323
REMARK  129  A    between atoms: _323  and  _324
REMARK  130  A    between atoms: _326  and  _328
REMARK  131  A    between atoms: _328  and  _329
REMARK  132  A    between atoms: _328  and  _331
REMARK  133  A    between atoms: _331  and  _332
REMARK  134  A    between atoms: _335  and  _337
REMARK  135  A    between atoms: _337  and  _338
REMARK  136  A    between atoms: _337  and  _340
REMARK  137  A    between atoms: _340  and  _341
REMARK  138  A    between atoms: _344  and  _346
REMARK  139  A    between atoms: _346  and  _347
REMARK  140  A    between atoms: _346  and  _349
REMARK  141  A    between atoms: _349  and  _350
REMARK  142  A    between atoms: _353  and  _355
REMARK  143  A    between atoms: _355  and  _356
REMARK  144  A    between atoms: _355  and  _358
REMARK  145  A    between atoms: _361  and  _363
REMARK  146  A    between atoms: _363  and  _364
REMARK  147  A    between atoms: _363  and  _366
REMARK  148  A    between atoms: _366  and  _367
REMARK  149  A    between atoms: _369  and  _371
REMARK  150  A    between atoms: _371  and  _372
REMARK  151  A    between atoms: _371  and  _374
REMARK  152  A    between atoms: _374  and  _375
REMARK  153  A    between atoms: _378  and  _380
REMARK  154  A    between atoms: _380  and  _381
REMARK  155  A    between atoms: _380  and  _383
REMARK  156  A    between atoms: _383  and  _384
REMARK  157  A    between atoms: _389  and  _390
REMARK  158  A    between atoms: _392  and  _394
REMARK  159  A    between atoms: _394  and  _395
REMARK  160  A    between atoms: _394  and  _397
REMARK  161  A    between atoms: _397  and  _398
REMARK  162  A    between atoms: _398  and  _399
REMARK  163  A    between atoms: _399  and  _400
REMARK  164  A    between atoms: _409  and  _411
REMARK  165  A    between atoms: _411  and  _412
REMARK  166  A    between atoms: _411  and  _414
REMARK  167  A    between atoms: _414  and  _415
REMARK  168  A    between atoms: _417  and  _419
REMARK  169  A    between atoms: _419  and  _420
REMARK  170  A    between atoms: _419  and  _422
REMARK  171  A    between atoms: _424  and  _426
REMARK  172  A    between atoms: _426  and  _427
REMARK  173  A    between atoms: _426  and  _429
REMARK  174  A    between atoms: _429  and  _430
REMARK  175  A    between atoms: _433  and  _435
REMARK  176  A    between atoms: _435  and  _436
REMARK  177  A    between atoms: _435  and  _438
REMARK  178  A    between atoms: _441  and  _443
REMARK  179  A    between atoms: _443  and  _444
REMARK  180  A    between atoms: _443  and  _446
REMARK  181  A    between atoms: _446  and  _447
REMARK  182  A    between atoms: _447  and  _448
REMARK  183  A    between atoms: _450  and  _452
REMARK  184  A    between atoms: _452  and  _453
REMARK  185  A    between atoms: _452  and  _455
REMARK  186  A    between atoms: _455  and  _456
REMARK  187  A    between atoms: _456  and  _457
REMARK  188  A    between atoms: _457  and  _458
REMARK  189  A    between atoms: _467  and  _469
REMARK  190  A    between atoms: _469  and  _470
REMARK  191  A    between atoms: _473  and  _474
REMARK  192  A    between atoms: _479  and  _481
REMARK  193  A    between atoms: _481  and  _482
REMARK  194  A    between atoms: _481  and  _484
REMARK  195  A    between atoms: _484  and  _485
REMARK  196  A    between atoms: _485  and  _486
REMARK  197  A    between atoms: _489  and  _491
REMARK  198  A    between atoms: _491  and  _492
REMARK  199  A    between atoms: _491  and  _494
REMARK  200  A    between atoms: _494  and  _495
REMARK  201  A    between atoms: _498  and  _500
REMARK  202  A    between atoms: _500  and  _501
REMARK  203  A    between atoms: _500  and  _503
REMARK  204  A    between atoms: _503  and  _504
REMARK  205  A    between atoms: _514  and  _516
REMARK  206  A    between atoms: _516  and  _517
REMARK  207  A    between atoms: _516  and  _519
REMARK  208  A    between atoms: _522  and  _524
REMARK  209  A    between atoms: _524  and  _525
REMARK  210  A    between atoms: _524  and  _527
REMARK  211  A    between atoms: _527  and  _528
REMARK                            x       y       z     vdW  Elec       q    Type
REMARK                         _______ _______ _______ _____ _____    ______ ____
ROOT
ATOM      1  CA  VAL A   3      -6.168  28.839  -6.278  0.00  0.00    +0.149 C 
ENDROOT
BRANCH   1   2
ATOM      2  C   VAL A   3      -7.136  28.115  -5.330  0.00  0.00    +0.241 C 
ATOM      3  N   THR A   4      -7.349  28.693  -4.152  0.00  0.00    -0.295 N 
ATOM      4  H   THR A   4      -6.821  29.560  -3.924  0.00  0.00    +0.150 HD
ATOM      5  O   VAL A   3      -7.596  27.013  -5.630  0.00  0.00    -0.273 OA
BRANCH   3   6
ATOM      6  CA  THR A   4      -8.288  28.171  -3.162  0.00  0.00    +0.176 C 
BRANCH   6   7
ATOM      7  C   THR A   4      -9.323  29.247  -2.877  0.00  0.00    +0.243 C 
ATOM      8  O   THR A   4      -8.981  30.423  -2.743  0.00  0.00    -0.273 OA
ATOM      9  N   VAL A   5     -10.589  28.849  -2.861  0.00  0.00    -0.298 N 
ATOM     10  H   VAL A   5     -10.797  27.833  -2.935  0.00  0.00    +0.150 HD
BRANCH   9  11
ATOM     11  CA  VAL A   5     -11.701  29.789  -2.743  0.00  0.00    +0.137 C 
BRANCH  11  12
ATOM     12  CB  VAL A   5     -12.649  29.683  -3.960  0.00  0.00    +0.026 C 
ATOM     13  CG2 VAL A   5     -13.021  28.244  -4.211  0.00  0.00    +0.002 C 
ATOM     14  CG1 VAL A   5     -11.977  30.271  -5.216  0.00  0.00    +0.002 C 
ENDBRANCH  11  12
BRANCH  11  15
ATOM     15  C   VAL A   5     -12.493  29.623  -1.449  0.00  0.00    +0.227 C 
ATOM     16  O   VAL A   5     -12.942  28.525  -1.126  0.00  0.00    -0.286 OA
ENDBRANCH  11  15
ENDBRANCH   9  11
ENDBRANCH   6   7
BRANCH   6  17
ATOM     17  CB  THR A   4      -7.572  27.843  -1.831  0.00  0.00    +0.137 C 
ATOM     18  CG2 THR A   4      -8.472  26.983  -0.928  0.00  0.00    +0.034 C 
BRANCH  17  19
ATOM     19  OG1 THR A   4      -6.363  27.123  -2.111  0.00  0.00    -0.382 OA
ATOM     20  HG1 THR A   4      -6.583  26.283  -2.586  0.00  0.00    +0.210 HD
ENDBRANCH  17  19
ENDBRANCH   6  17
ENDBRANCH   3   6
ENDBRANCH   1   2
BRANCH   1  23
ATOM     21  C   THR A   2      -3.891  28.085  -6.751  0.00  0.00    +0.243 C 
ATOM     22  O   THR A   2      -3.389  29.165  -6.450  0.00  0.00    -0.273 OA
ATOM     23  N   VAL A   3      -5.202  27.870  -6.778  0.00  0.00    -0.297 N 
ATOM     24  H   VAL A   3      -5.553  26.974  -7.172  0.00  0.00    +0.150 HD
BRANCH  21  25
ATOM     25  CA  THR A   2      -3.017  26.924  -7.198  0.00  0.00    +0.176 C 
BRANCH  25  27
ATOM     26  C   ALA A   1      -1.803  27.318  -9.253  0.00  0.00    +0.238 C 
ATOM     27  N   THR A   2      -1.885  27.442  -7.941  0.00  0.00    -0.295 N 
ATOM     28  H   THR A   2      -1.119  27.923  -7.428  0.00  0.00    +0.150 HD
ATOM     29  O   ALA A   1      -2.619  26.676  -9.923  0.00  0.00    -0.274 OA
BRANCH  26  30
ATOM     30  CA  ALA A   1      -0.558  27.922  -9.903  0.00  0.00    +0.145 C 
ATOM     31  CB  ALA A   1      -0.474  29.409  -9.620  0.00  0.00    +0.028 C 
BRANCH  30  32
ATOM     32  N   ALA A   1      -0.635  27.684 -11.326  0.00  0.00    -0.238 NA
ATOM     33  H   ALA A   1      -1.571  27.645 -11.777  0.00  0.00    +0.142 HD
ENDBRANCH  30  32
ENDBRANCH  26  30
ENDBRANCH  25  27
BRANCH  25  34
ATOM     34  CB  THR A   2      -2.538  26.155  -5.972  0.00  0.00    +0.137 C 
ATOM     35  CG2 THR A   2      -3.737  25.599  -5.136  0.00  0.00    +0.034 C 
BRANCH  34  36
ATOM     36  OG1 THR A   2      -1.712  25.074  -6.408  0.00  0.00    -0.382 OA
ATOM     37  HG1 THR A   2      -1.393  24.565  -5.621  0.00  0.00    +0.210 HD
ENDBRANCH  34  36
ENDBRANCH  25  34
ENDBRANCH  21  25
ENDBRANCH   1  23
BRANCH   1  38
ATOM     38  CB  VAL A   3      -6.954  29.468  -7.447  0.00  0.00    +0.027 C 
ATOM     39  CG2 VAL A   3      -7.761  30.696  -6.969  0.00  0.00    +0.002 C 
ATOM     40  CG1 VAL A   3      -7.850  28.414  -8.109  0.00  0.00    +0.002 C 
ENDBRANCH   1  38
TORSDOF 16
REMARK  Name = ../refined-set-2016/3brn/3brn_pocket.pdb
REMARK  211 active torsions:
REMARK  status: ('A' for Active; 'I' for Inactive)
REMARK    1  A    between atoms: _1  and  _3
REMARK    2  A    between atoms: _3  and  _4
REMARK    3  A    between atoms: _7  and  _9
REMARK    4  A    between atoms: _9  and  _10
REMARK    5  A    between atoms: _9  and  _12
REMARK    6  A    between atoms: _12  and  _13
REMARK    7  A    between atoms: _18  and  _19
REMARK    8  A    between atoms: _21  and  _23
REMARK    9  A    between atoms: _23  and  _24
REMARK   10  A    between atoms: _23  and  _26
REMARK   11  A    between atoms: _26  and  _27
REMARK   12  A    between atoms: _27  and  _28
REMARK   13  A    between atoms: _28  and  _29
REMARK   14  A    between atoms: _29  and  _30
REMARK   15  A    between atoms: _34  and  _36
REMARK   16  A    between atoms: _36  and  _37
REMARK   17  A    between atoms: _36  and  _39
REMARK   18  A    between atoms: _39  and  _40
REMARK   19  A    between atoms: _42  and  _44
REMARK   20  A    between atoms: _44  and  _45
REMARK   21  A    between atoms: _44  and  _47
REMARK   22  A    between atoms: _50  and  _52
REMARK   23  A    between atoms: _52  and  _53
REMARK   24  A    between atoms: _52  and  _55
REMARK   25  A    between atoms: _55  and  _56
REMARK   26  A    between atoms: _61  and  _63
REMARK   27  A    between atoms: _63  and  _64
REMARK   28  A    between atoms: _67  and  _68
REMARK   29  A    between atoms: _73  and  _75
REMARK   30  A    between atoms: _75  and  _76
REMARK   31  A    between atoms: _78  and  _80
REMARK   32  A    between atoms: _80  and  _81
REMARK   33  A    between atoms: _80  and  _83
REMARK   34  A    between atoms: _83  and  _84
REMARK   35  A    between atoms: _89  and  _90
REMARK   36  A    between atoms: _92  and  _94
REMARK   37  A    between atoms: _94  and  _95
REMARK   38  A    between atoms: _94  and  _97
REMARK   39  A    between atoms: _97  and  _98
REMARK   40  A    between atoms: _103  and  _104
REMARK   41  A    between atoms: _106  and  _108
REMARK   42  A    between atoms: _108  and  _109
REMARK   43  A    between atoms: _108  and  _111
REMARK   44  A    between atoms: _111  and  _112
REMARK   45  A    between atoms: _115  and  _117
REMARK   46  A    between atoms: _117  and  _118
REMARK   47  A    between atoms: _117  and  _120
REMARK   48  A    between atoms: _120  and  _121
REMARK   49  A    between atoms: _126  and  _127
REMARK   50  A    between atoms: _129  and  _131
REMARK   51  A    between atoms: _131  and  _132
REMARK   52  A    between atoms: _131  and  _134
REMARK   53  A    between atoms: _137  and  _139
REMARK   54  A    between atoms: _139  and  _140
REMARK   55  A    between atoms: _139  and  _142
REMARK   56  A    between atoms: _142  and  _143
REMARK   57  A    between atoms: _146  and  _148
REMARK   58  A    between atoms: _148  and  _149
REMARK   59  A    between atoms: _148  and  _151
REMARK   60  A    between atoms: _155  and  _156
REMARK   61  A    between atoms: _161  and  _163
REMARK   62  A    between atoms: _163  and  _164
REMARK   63  A    between atoms: _163  and  _166
REMARK   64  A    between atoms: _166  and  _167
REMARK   65  A    between atoms: _170  and  _172
REMARK   66  A    between atoms: _172  and  _173
REMARK   67  A    between atoms: _172  and  _175
REMARK   68  A    between atoms: _175  and  _176
REMARK   69  A    between atoms: _179  and  _181
REMARK   70  A    between atoms: _181  and  _182
REMARK   71  A    between atoms: _181  and  _184
REMARK   72  A    between atoms: _184  and  _185
REMARK   73  A    between atoms: _187  and  _189
REMARK   74  A    between atoms: _189  and  _190
REMARK   75  A    between atoms: _189  and  _192
REMARK   76  A    between atoms: _192  and  _193
REMARK   77  A    between atoms: _199  and  _201
REMARK   78  A    between atoms: _201  and  _202
REMARK   79  A    between atoms: _201  and  _204
REMARK   80  A    between atoms: _204  and  _205
REMARK   81  A    between atoms: _208  and  _210
REMARK   82  A    between atoms: _210  and  _211
REMARK   83  A    between atoms: _210  and  _213
REMARK   84  A    between atoms: _213  and  _214
REMARK   85  A    between atoms: _219  and  _220
REMARK   86  A    between atoms: _222  and  _224
REMARK   87  A    between atoms: _224  and  _225
REMARK   88  A    between atoms: _228  and  _230
REMARK   89  A    between atoms: _230  and  _231
REMARK   90  A    between atoms: _230  and  _233
REMARK   91  A    between atoms: _233  and  _234
REMARK   92  A    between atoms: _237  and  _239
REMARK   93  A    between atoms: _239  and  _240
REMARK   94  A    between atoms: _239  and  _242
REMARK   95  A    between atoms: _245  and  _247
REMARK   96  A    between atoms: _247  and  _248
REMARK   97  A    between atoms: _247  and  _250
REMARK   98  A    between atoms: _250  and  _251
REMARK   99  A    between atoms: _254  and  _256
REMARK  100  A    between atoms: _256  and  _257
REMARK  101  A    between atoms: _256  and  _259
REMARK  102  A    between atoms: _262  and  _264
REMARK  103  A    between atoms: _264  and  _265
REMARK  104  A    between atoms: _264  and  _267
REMARK  105  A    between atoms: _267  and  _268
REMARK  106  A    between atoms: _271  and  _273
REMARK  107  A    between atoms: _273  and  _274
REMARK  108  A    between atoms: _273  and  _276
REMARK  109  A    between atoms: _276  and  _277
REMARK  110  A    between atoms: _277  and  _278
REMARK  111  A    between atoms: _281  and  _283
REMARK  112  A    between atoms: _283  and  _284
REMARK  113  A    between atoms: _283  and  _286
REMARK  114  A    between atoms: _289  and  _291
REMARK  115  A    between atoms: _291  and  _292
REMARK  116  A    between atoms: _291  and  _294
REMARK  117  A    between atoms: _294  and  _295
REMARK  118  A    between atoms: _298  and  _300
REMARK  119  A    between atoms: _300  and  _301
REMARK  120  A    between atoms: _304  and  _306
REMARK  121  A    between atoms: _306  and  _307
REMARK  122  A    between atoms: _306  and  _309
REMARK  123  A    between atoms: _309  and  _310
REMARK  124  A    between atoms: _313  and  _315
REMARK  125  A    between atoms: _315  and  _316
REMARK  126  A    between atoms: _315  and  _318
REMARK  127  A    between atoms: _318  and  _319
REMARK  128  A    between atoms: _321  and  _323
REMARK  129  A    between atoms: _323  and  _324
REMARK  130  A    between atoms: _326  and  _328
REMARK  131  A    between atoms: _328  and  _329
REMARK  132  A    between atoms: _328  and  _331
REMARK  133  A    between atoms: _331  and  _332
REMARK  134  A    between atoms: _335  and  _337
REMARK  135  A    between atoms: _337  and  _338
REMARK  136  A    between atoms: _337  and  _340
REMARK  137  A    between atoms: _340  and  _341
REMARK  138  A    between atoms: _344  and  _346
REMARK  139  A    between atoms: _346  and  _347
REMARK  140  A    between atoms: _346  and  _349
REMARK  141  A    between atoms: _349  and  _350
REMARK  142  A    between atoms: _353  and  _355
REMARK  143  A    between atoms: _355  and  _356
REMARK  144  A    between atoms: _355  and  _358
REMARK  145  A    between atoms: _361  and  _363
REMARK  146  A    between atoms: _363  and  _364
REMARK  147  A    between atoms: _363  and  _366
REMARK  148  A    between atoms: _366  and  _367
REMARK  149  A    between atoms: _369  and  _371
REMARK  150  A    between atoms: _371  and  _372
REMARK  151  A    between atoms: _371  and  _374
REMARK  152  A    between atoms: _374  and  _375
REMARK  153  A    between atoms: _378  and  _380
REMARK  154  A    between atoms: _380  and  _381
REMARK  155  A    between atoms: _380  and  _383
REMARK  156  A    between atoms: _383  and  _384
REMARK  157  A    between atoms: _389  and  _390
REMARK  158  A    between atoms: _392  and  _394
REMARK  159  A    between atoms: _394  and  _395
REMARK  160  A    between atoms: _394  and  _397
REMARK  161  A    between atoms: _397  and  _398
REMARK  162  A    between atoms: _398  and  _399
REMARK  163  A    between atoms: _399  and  _400
REMARK  164  A    between atoms: _409  and  _411
REMARK  165  A    between atoms: _411  and  _412
REMARK  166  A    between atoms: _411  and  _414
REMARK  167  A    between atoms: _414  and  _415
REMARK  168  A    between atoms: _417  and  _419
REMARK  169  A    between atoms: _419  and  _420
REMARK  170  A    between atoms: _419  and  _422
REMARK  171  A    between atoms: _424  and  _426
REMARK  172  A    between atoms: _426  and  _427
REMARK  173  A    between atoms: _426  and  _429
REMARK  174  A    between atoms: _429  and  _430
REMARK  175  A    between atoms: _433  and  _435
REMARK  176  A    between atoms: _435  and  _436
REMARK  177  A    between atoms: _435  and  _438
REMARK  178  A    between atoms: _441  and  _443
REMARK  179  A    between atoms: _443  and  _444
REMARK  180  A    between atoms: _443  and  _446
REMARK  181  A    between atoms: _446  and  _447
REMARK  182  A    between atoms: _447  and  _448
REMARK  183  A    between atoms: _450  and  _452
REMARK  184  A    between atoms: _452  and  _453
REMARK  185  A    between atoms: _452  and  _455
REMARK  186  A    between atoms: _455  and  _456
REMARK  187  A    between atoms: _456  and  _457
REMARK  188  A    between atoms: _457  and  _458
REMARK  189  A    between atoms: _467  and  _469
REMARK  190  A    between atoms: _469  and  _470
REMARK  191  A    between atoms: _473  and  _474
REMARK  192  A    between atoms: _479  and  _481
REMARK  193  A    between atoms: _481  and  _482
REMARK  194  A    between atoms: _481  and  _484
REMARK  195  A    between atoms: _484  and  _485
REMARK  196  A    between atoms: _485  and  _486
REMARK  197  A    between atoms: _489  and  _491
REMARK  198  A    between atoms: _491  and  _492
REMARK  199  A    between atoms: _491  and  _494
REMARK  200  A    between atoms: _494  and  _495
REMARK  201  A    between atoms: _498  and  _500
REMARK  202  A    between atoms: _500  and  _501
REMARK  203  A    between atoms: _500  and  _503
REMARK  204  A    between atoms: _503  and  _504
REMARK  205  A    between atoms: _514  and  _516
REMARK  206  A    between atoms: _516  and  _517
REMARK  207  A    between atoms: _516  and  _519
REMARK  208  A    between atoms: _522  and  _524
REMARK  209  A    between atoms: _524  and  _525
REMARK  210  A    between atoms: _524  and  _527
REMARK  211  A    between atoms: _527  and  _528
REMARK                            x       y       z     vdW  Elec       q    Type
REMARK                         _______ _______ _______ _____ _____    ______ ____
ROOT
ATOM      1  C   GLU A   2      -5.254  32.051  -3.470  0.00  0.00    +0.241 C 
ATOM      2  O   GLU A   2      -5.509  30.892  -3.790  0.00  0.00    -0.273 OA
ATOM      3  N   VAL A   3      -4.223  32.731  -3.965  0.00  0.00    -0.297 N 
ATOM      4  H   VAL A   3      -4.034  33.692  -3.616  0.00  0.00    +0.150 HD
ENDROOT
BRANCH   3   5
ATOM      5  CA  VAL A   3      -3.360  32.164  -4.977  0.00  0.00    +0.149 C 
BRANCH   5   6
ATOM      6  C   VAL A   3      -1.987  31.840  -4.383  0.00  0.00    +0.241 C 
ATOM      7  O   VAL A   3      -1.482  32.585  -3.532  0.00  0.00    -0.273 OA
ATOM      8  N   THR A   4      -1.520  30.625  -4.666  0.00  0.00    -0.296 N 
ATOM      9  H   THR A   4      -2.106  29.985  -5.239  0.00  0.00    +0.150 HD
BRANCH   8  10
ATOM     10  CA  THR A   4      -0.211  30.154  -4.201  0.00  0.00    +0.164 C 
BRANCH  10  11
ATOM     11  C   THR A   4       0.588  29.594  -5.375  0.00  0.00    +0.229 C 
ATOM     12  O   THR A   4       0.058  28.846  -6.200  0.00  0.00    -0.286 OA
ENDBRANCH  10  11
BRANCH  10  13
ATOM     13  CB  THR A   4      -0.357  29.056  -3.101  0.00  0.00    +0.136 C 
ATOM     14  CG2 THR A   4      -0.657  29.669  -1.783  0.00  0.00    +0.034 C 
BRANCH  13  15
ATOM     15  OG1 THR A   4      -1.437  28.182  -3.431  0.00  0.00    -0.382 OA
ATOM     16  HG1 THR A   4      -1.256  27.750  -4.303  0.00  0.00    +0.210 HD
ENDBRANCH  13  15
ENDBRANCH  10  13
ENDBRANCH   8  10
ENDBRANCH   5   6
BRANCH   5  17
ATOM     17  CB  VAL A   3      -3.198  33.103  -6.202  0.00  0.00    +0.027 C 
ATOM     18  CG2 VAL A   3      -4.484  33.157  -7.000  0.00  0.00    +0.002 C 
ATOM     19  CG1 VAL A   3      -2.054  32.632  -7.082  0.00  0.00    +0.002 C 
ENDBRANCH   5  17
ENDBRANCH   3   5
BRANCH   1  20
ATOM     20  CA  GLU A   2      -6.157  32.803  -2.514  0.00  0.00    +0.149 C 
BRANCH  20  22
ATOM     21  C   ILE A   1      -7.964  34.031  -3.587  0.00  0.00    +0.238 C 
ATOM     22  N   GLU A   2      -7.509  32.901  -3.057  0.00  0.00    -0.297 N 
ATOM     23  H   GLU A   2      -8.130  32.067  -3.028  0.00  0.00    +0.150 HD
ATOM     24  O   ILE A   1      -7.320  35.084  -3.577  0.00  0.00    -0.274 OA
BRANCH  21  25
ATOM     25  CA  ILE A   1      -9.423  34.017  -4.024  0.00  0.00    +0.145 C 
BRANCH  25  26
ATOM     26  CB  ILE A   1      -9.513  34.577  -5.468  0.00  0.00    +0.025 C 
ATOM     27  CG2 ILE A   1      -8.601  33.780  -6.436  0.00  0.00    +0.002 C 
BRANCH  26  28
ATOM     28  CG1 ILE A   1     -10.963  34.541  -5.969  0.00  0.00    +0.002 C 
ATOM     29  CD1 ILE A   1     -11.177  35.322  -7.265  0.00  0.00    +0.000 C 
ENDBRANCH  26  28
ENDBRANCH  25  26
BRANCH  25  30
ATOM     30  N   ILE A   1     -10.160  34.846  -3.068  0.00  0.00    -0.238 NA
ATOM     31  H   ILE A   1     -10.034  35.878  -3.105  0.00  0.00    +0.142 HD
ENDBRANCH  25  30
ENDBRANCH  21  25
ENDBRANCH  20  22
BRANCH  20  32
ATOM     32  CB  GLU A   2      -6.176  32.098  -1.157  0.00  0.00    +0.041 C 
BRANCH  32  33
ATOM     33  CG  GLU A   2      -4.791  31.933  -0.546  0.00  0.00    +0.116 C 
BRANCH  33  34
ATOM     34  CD  GLU A   2      -4.163  33.259  -0.149  0.00  0.00    +0.365 C 
ATOM     35  OE2 GLU A   2      -4.902  34.145   0.324  0.00  0.00    -0.246 OA
ATOM     36  OE1 GLU A   2      -2.929  33.400  -0.278  0.00  0.00    -0.246 OA
ENDBRANCH  33  34
ENDBRANCH  32  33
ENDBRANCH  20  32
ENDBRANCH   1  20
TORSDOF 16
REMARK  Name = ../refined-set-2016/3brn/3brn_pocket.pdb
REMARK  211 active torsions:
REMARK  status: ('A' for Active; 'I' for Inactive)
REMARK    1  A    between atoms: _1  and  _3
REMARK    2  A    between atoms: _3  and  _4
REMARK    3  A    between atoms: _7  and  _9
REMARK    4  A    between atoms: _9  and  _10
REMARK    5  A    between atoms: _9  and  _12
REMARK    6  A    between atoms: _12  and  _13
REMARK    7  A    between atoms: _18  and  _19
REMARK    8  A    between atoms: _21  and  _23
REMARK    9  A    between atoms: _23  and  _24
REMARK   10  A    between atoms: _23  and  _26
REMARK   11  A    between atoms: _26  and  _27
REMARK   12  A    between atoms: _27  and  _28
REMARK   13  A    between atoms: _28  and  _29
REMARK   14  A    between atoms: _29  and  _30
REMARK   15  A    between atoms: _34  and  _36
REMARK   16  A    between atoms: _36  and  _37
REMARK   17  A    between atoms: _36  and  _39
REMARK   18  A    between atoms: _39  and  _40
REMARK   19  A    between atoms: _42  and  _44
REMARK   20  A    between atoms: _44  and  _45
REMARK   21  A    between atoms: _44  and  _47
REMARK   22  A    between atoms: _50  and  _52
REMARK   23  A    between atoms: _52  and  _53
REMARK   24  A    between atoms: _52  and  _55
REMARK   25  A    between atoms: _55  and  _56
REMARK   26  A    between atoms: _61  and  _63
REMARK   27  A    between atoms: _63  and  _64
REMARK   28  A    between atoms: _67  and  _68
REMARK   29  A    between atoms: _73  and  _75
REMARK   30  A    between atoms: _75  and  _76
REMARK   31  A    between atoms: _78  and  _80
REMARK   32  A    between atoms: _80  and  _81
REMARK   33  A    between atoms: _80  and  _83
REMARK   34  A    between atoms: _83  and  _84
REMARK   35  A    between atoms: _89  and  _90
REMARK   36  A    between atoms: _92  and  _94
REMARK   37  A    between atoms: _94  and  _95
REMARK   38  A    between atoms: _94  and  _97
REMARK   39  A    between atoms: _97  and  _98
REMARK   40  A    between atoms: _103  and  _104
REMARK   41  A    between atoms: _106  and  _108
REMARK   42  A    between atoms: _108  and  _109
REMARK   43  A    between atoms: _108  and  _111
REMARK   44  A    between atoms: _111  and  _112
REMARK   45  A    between atoms: _115  and  _117
REMARK   46  A    between atoms: _117  and  _118
REMARK   47  A    between atoms: _117  and  _120
REMARK   48  A    between atoms: _120  and  _121
REMARK   49  A    between atoms: _126  and  _127
REMARK   50  A    between atoms: _129  and  _131
REMARK   51  A    between atoms: _131  and  _132
REMARK   52  A    between atoms: _131  and  _134
REMARK   53  A    between atoms: _137  and  _139
REMARK   54  A    between atoms: _139  and  _140
REMARK   55  A    between atoms: _139  and  _142
REMARK   56  A    between atoms: _142  and  _143
REMARK   57  A    between atoms: _146  and  _148
REMARK   58  A    between atoms: _148  and  _149
REMARK   59  A    between atoms: _148  and  _151
REMARK   60  A    between atoms: _155  and  _156
REMARK   61  A    between atoms: _161  and  _163
REMARK   62  A    between atoms: _163  and  _164
REMARK   63  A    between atoms: _163  and  _166
REMARK   64  A    between atoms: _166  and  _167
REMARK   65  A    between atoms: _170  and  _172
REMARK   66  A    between atoms: _172  and  _173
REMARK   67  A    between atoms: _172  and  _175
REMARK   68  A    between atoms: _175  and  _176
REMARK   69  A    between atoms: _179  and  _181
REMARK   70  A    between atoms: _181  and  _182
REMARK   71  A    between atoms: _181  and  _184
REMARK   72  A    between atoms: _184  and  _185
REMARK   73  A    between atoms: _187  and  _189
REMARK   74  A    between atoms: _189  and  _190
REMARK   75  A    between atoms: _189  and  _192
REMARK   76  A    between atoms: _192  and  _193
REMARK   77  A    between atoms: _199  and  _201
REMARK   78  A    between atoms: _201  and  _202
REMARK   79  A    between atoms: _201  and  _204
REMARK   80  A    between atoms: _204  and  _205
REMARK   81  A    between atoms: _208  and  _210
REMARK   82  A    between atoms: _210  and  _211
REMARK   83  A    between atoms: _210  and  _213
REMARK   84  A    between atoms: _213  and  _214
REMARK   85  A    between atoms: _219  and  _220
REMARK   86  A    between atoms: _222  and  _224
REMARK   87  A    between atoms: _224  and  _225
REMARK   88  A    between atoms: _228  and  _230
REMARK   89  A    between atoms: _230  and  _231
REMARK   90  A    between atoms: _230  and  _233
REMARK   91  A    between atoms: _233  and  _234
REMARK   92  A    between atoms: _237  and  _239
REMARK   93  A    between atoms: _239  and  _240
REMARK   94  A    between atoms: _239  and  _242
REMARK   95  A    between atoms: _245  and  _247
REMARK   96  A    between atoms: _247  and  _248
REMARK   97  A    between atoms: _247  and  _250
REMARK   98  A    between atoms: _250  and  _251
REMARK   99  A    between atoms: _254  and  _256
REMARK  100  A    between atoms: _256  and  _257
REMARK  101  A    between atoms: _256  and  _259
REMARK  102  A    between atoms: _262  and  _264
REMARK  103  A    between atoms: _264  and  _265
REMARK  104  A    between atoms: _264  and  _267
REMARK  105  A    between atoms: _267  and  _268
REMARK  106  A    between atoms: _271  and  _273
REMARK  107  A    between atoms: _273  and  _274
REMARK  108  A    between atoms: _273  and  _276
REMARK  109  A    between atoms: _276  and  _277
REMARK  110  A    between atoms: _277  and  _278
REMARK  111  A    between atoms: _281  and  _283
REMARK  112  A    between atoms: _283  and  _284
REMARK  113  A    between atoms: _283  and  _286
REMARK  114  A    between atoms: _289  and  _291
REMARK  115  A    between atoms: _291  and  _292
REMARK  116  A    between atoms: _291  and  _294
REMARK  117  A    between atoms: _294  and  _295
REMARK  118  A    between atoms: _298  and  _300
REMARK  119  A    between atoms: _300  and  _301
REMARK  120  A    between atoms: _304  and  _306
REMARK  121  A    between atoms: _306  and  _307
REMARK  122  A    between atoms: _306  and  _309
REMARK  123  A    between atoms: _309  and  _310
REMARK  124  A    between atoms: _313  and  _315
REMARK  125  A    between atoms: _315  and  _316
REMARK  126  A    between atoms: _315  and  _318
REMARK  127  A    between atoms: _318  and  _319
REMARK  128  A    between atoms: _321  and  _323
REMARK  129  A    between atoms: _323  and  _324
REMARK  130  A    between atoms: _326  and  _328
REMARK  131  A    between atoms: _328  and  _329
REMARK  132  A    between atoms: _328  and  _331
REMARK  133  A    between atoms: _331  and  _332
REMARK  134  A    between atoms: _335  and  _337
REMARK  135  A    between atoms: _337  and  _338
REMARK  136  A    between atoms: _337  and  _340
REMARK  137  A    between atoms: _340  and  _341
REMARK  138  A    between atoms: _344  and  _346
REMARK  139  A    between atoms: _346  and  _347
REMARK  140  A    between atoms: _346  and  _349
REMARK  141  A    between atoms: _349  and  _350
REMARK  142  A    between atoms: _353  and  _355
REMARK  143  A    between atoms: _355  and  _356
REMARK  144  A    between atoms: _355  and  _358
REMARK  145  A    between atoms: _361  and  _363
REMARK  146  A    between atoms: _363  and  _364
REMARK  147  A    between atoms: _363  and  _366
REMARK  148  A    between atoms: _366  and  _367
REMARK  149  A    between atoms: _369  and  _371
REMARK  150  A    between atoms: _371  and  _372
REMARK  151  A    between atoms: _371  and  _374
REMARK  152  A    between atoms: _374  and  _375
REMARK  153  A    between atoms: _378  and  _380
REMARK  154  A    between atoms: _380  and  _381
REMARK  155  A    between atoms: _380  and  _383
REMARK  156  A    between atoms: _383  and  _384
REMARK  157  A    between atoms: _389  and  _390
REMARK  158  A    between atoms: _392  and  _394
REMARK  159  A    between atoms: _394  and  _395
REMARK  160  A    between atoms: _394  and  _397
REMARK  161  A    between atoms: _397  and  _398
REMARK  162  A    between atoms: _398  and  _399
REMARK  163  A    between atoms: _399  and  _400
REMARK  164  A    between atoms: _409  and  _411
REMARK  165  A    between atoms: _411  and  _412
REMARK  166  A    between atoms: _411  and  _414
REMARK  167  A    between atoms: _414  and  _415
REMARK  168  A    between atoms: _417  and  _419
REMARK  169  A    between atoms: _419  and  _420
REMARK  170  A    between atoms: _419  and  _422
REMARK  171  A    between atoms: _424  and  _426
REMARK  172  A    between atoms: _426  and  _427
REMARK  173  A    between atoms: _426  and  _429
REMARK  174  A    between atoms: _429  and  _430
REMARK  175  A    between atoms: _433  and  _435
REMARK  176  A    between atoms: _435  and  _436
REMARK  177  A    between atoms: _435  and  _438
REMARK  178  A    between atoms: _441  and  _443
REMARK  179  A    between atoms: _443  and  _444
REMARK  180  A    between atoms: _443  and  _446
REMARK  181  A    between atoms: _446  and  _447
REMARK  182  A    between atoms: _447  and  _448
REMARK  183  A    between atoms: _450  and  _452
REMARK  184  A    between atoms: _452  and  _453
REMARK  185  A    between atoms: _452  and  _455
REMARK  186  A    between atoms: _455  and  _456
REMARK  187  A    between atoms: _456  and  _457
REMARK  188  A    between atoms: _457  and  _458
REMARK  189  A    between atoms: _467  and  _469
REMARK  190  A    between atoms: _469  and  _470
REMARK  191  A    between atoms: _473  and  _474
REMARK  192  A    between atoms: _479  and  _481
REMARK  193  A    between atoms: _481  and  _482
REMARK  194  A    between atoms: _481  and  _484
REMARK  195  A    between atoms: _484  and  _485
REMARK  196  A    between atoms: _485  and  _486
REMARK  197  A    between atoms: _489  and  _491
REMARK  198  A    between atoms: _491  and  _492
REMARK  199  A    between atoms: _491  and  _494
REMARK  200  A    between atoms: _494  and  _495
REMARK  201  A    between atoms: _498  and  _500
REMARK  202  A    between atoms: _500  and  _501
REMARK  203  A    between atoms: _500  and  _503
REMARK  204  A    between atoms: _503  and  _504
REMARK  205  A    between atoms: _514  and  _516
REMARK  206  A    between atoms: _516  and  _517
REMARK  207  A    between atoms: _516  and  _519
REMARK  208  A    between atoms: _522  and  _524
REMARK  209  A    between atoms: _524  and  _525
REMARK  210  A    between atoms: _524  and  _527
REMARK  211  A    between atoms: _527  and  _528
REMARK                            x       y       z     vdW  Elec       q    Type
REMARK                         _______ _______ _______ _____ _____    ______ ____
ROOT
ATOM      1  CA  ALA A   1       2.194  32.245  -9.086  0.00  0.00    +0.133 C 
ATOM      2  CB  ALA A   1       0.778  32.808  -9.250  0.00  0.00    +0.027 C 
ENDROOT
BRANCH   1   3
ATOM      3  N   ALA A   1       2.286  31.456  -7.866  0.00  0.00    -0.239 NA
ATOM      4  H   ALA A   1       2.057  31.902  -6.955  0.00  0.00    +0.142 HD
ENDBRANCH   1   3
BRANCH   1   5
ATOM      5  C   ALA A   1       3.234  33.367  -9.099  0.00  0.00    +0.224 C 
ATOM      6  O   ALA A   1       3.169  34.282  -9.924  0.00  0.00    -0.287 OA
ENDBRANCH   1   5
TORSDOF 2
REMARK  Name = ../refined-set-2016/3brn/3brn_pocket.pdb
REMARK  211 active torsions:
REMARK  status: ('A' for Active; 'I' for Inactive)
REMARK    1  A    between atoms: _1  and  _3
REMARK    2  A    between atoms: _3  and  _4
REMARK    3  A    between atoms: _7  and  _9
REMARK    4  A    between atoms: _9  and  _10
REMARK    5  A    between atoms: _9  and  _12
REMARK    6  A    between atoms: _12  and  _13
REMARK    7  A    between atoms: _18  and  _19
REMARK    8  A    between atoms: _21  and  _23
REMARK    9  A    between atoms: _23  and  _24
REMARK   10  A    between atoms: _23  and  _26
REMARK   11  A    between atoms: _26  and  _27
REMARK   12  A    between atoms: _27  and  _28
REMARK   13  A    between atoms: _28  and  _29
REMARK   14  A    between atoms: _29  and  _30
REMARK   15  A    between atoms: _34  and  _36
REMARK   16  A    between atoms: _36  and  _37
REMARK   17  A    between atoms: _36  and  _39
REMARK   18  A    between atoms: _39  and  _40
REMARK   19  A    between atoms: _42  and  _44
REMARK   20  A    between atoms: _44  and  _45
REMARK   21  A    between atoms: _44  and  _47
REMARK   22  A    between atoms: _50  and  _52
REMARK   23  A    between atoms: _52  and  _53
REMARK   24  A    between atoms: _52  and  _55
REMARK   25  A    between atoms: _55  and  _56
REMARK   26  A    between atoms: _61  and  _63
REMARK   27  A    between atoms: _63  and  _64
REMARK   28  A    between atoms: _67  and  _68
REMARK   29  A    between atoms: _73  and  _75
REMARK   30  A    between atoms: _75  and  _76
REMARK   31  A    between atoms: _78  and  _80
REMARK   32  A    between atoms: _80  and  _81
REMARK   33  A    between atoms: _80  and  _83
REMARK   34  A    between atoms: _83  and  _84
REMARK   35  A    between atoms: _89  and  _90
REMARK   36  A    between atoms: _92  and  _94
REMARK   37  A    between atoms: _94  and  _95
REMARK   38  A    between atoms: _94  and  _97
REMARK   39  A    between atoms: _97  and  _98
REMARK   40  A    between atoms: _103  and  _104
REMARK   41  A    between atoms: _106  and  _108
REMARK   42  A    between atoms: _108  and  _109
REMARK   43  A    between atoms: _108  and  _111
REMARK   44  A    between atoms: _111  and  _112
REMARK   45  A    between atoms: _115  and  _117
REMARK   46  A    between atoms: _117  and  _118
REMARK   47  A    between atoms: _117  and  _120
REMARK   48  A    between atoms: _120  and  _121
REMARK   49  A    between atoms: _126  and  _127
REMARK   50  A    between atoms: _129  and  _131
REMARK   51  A    between atoms: _131  and  _132
REMARK   52  A    between atoms: _131  and  _134
REMARK   53  A    between atoms: _137  and  _139
REMARK   54  A    between atoms: _139  and  _140
REMARK   55  A    between atoms: _139  and  _142
REMARK   56  A    between atoms: _142  and  _143
REMARK   57  A    between atoms: _146  and  _148
REMARK   58  A    between atoms: _148  and  _149
REMARK   59  A    between atoms: _148  and  _151
REMARK   60  A    between atoms: _155  and  _156
REMARK   61  A    between atoms: _161  and  _163
REMARK   62  A    between atoms: _163  and  _164
REMARK   63  A    between atoms: _163  and  _166
REMARK   64  A    between atoms: _166  and  _167
REMARK   65  A    between atoms: _170  and  _172
REMARK   66  A    between atoms: _172  and  _173
REMARK   67  A    between atoms: _172  and  _175
REMARK   68  A    between atoms: _175  and  _176
REMARK   69  A    between atoms: _179  and  _181
REMARK   70  A    between atoms: _181  and  _182
REMARK   71  A    between atoms: _181  and  _184
REMARK   72  A    between atoms: _184  and  _185
REMARK   73  A    between atoms: _187  and  _189
REMARK   74  A    between atoms: _189  and  _190
REMARK   75  A    between atoms: _189  and  _192
REMARK   76  A    between atoms: _192  and  _193
REMARK   77  A    between atoms: _199  and  _201
REMARK   78  A    between atoms: _201  and  _202
REMARK   79  A    between atoms: _201  and  _204
REMARK   80  A    between atoms: _204  and  _205
REMARK   81  A    between atoms: _208  and  _210
REMARK   82  A    between atoms: _210  and  _211
REMARK   83  A    between atoms: _210  and  _213
REMARK   84  A    between atoms: _213  and  _214
REMARK   85  A    between atoms: _219  and  _220
REMARK   86  A    between atoms: _222  and  _224
REMARK   87  A    between atoms: _224  and  _225
REMARK   88  A    between atoms: _228  and  _230
REMARK   89  A    between atoms: _230  and  _231
REMARK   90  A    between atoms: _230  and  _233
REMARK   91  A    between atoms: _233  and  _234
REMARK   92  A    between atoms: _237  and  _239
REMARK   93  A    between atoms: _239  and  _240
REMARK   94  A    between atoms: _239  and  _242
REMARK   95  A    between atoms: _245  and  _247
REMARK   96  A    between atoms: _247  and  _248
REMARK   97  A    between atoms: _247  and  _250
REMARK   98  A    between atoms: _250  and  _251
REMARK   99  A    between atoms: _254  and  _256
REMARK  100  A    between atoms: _256  and  _257
REMARK  101  A    between atoms: _256  and  _259
REMARK  102  A    between atoms: _262  and  _264
REMARK  103  A    between atoms: _264  and  _265
REMARK  104  A    between atoms: _264  and  _267
REMARK  105  A    between atoms: _267  and  _268
REMARK  106  A    between atoms: _271  and  _273
REMARK  107  A    between atoms: _273  and  _274
REMARK  108  A    between atoms: _273  and  _276
REMARK  109  A    between atoms: _276  and  _277
REMARK  110  A    between atoms: _277  and  _278
REMARK  111  A    between atoms: _281  and  _283
REMARK  112  A    between atoms: _283  and  _284
REMARK  113  A    between atoms: _283  and  _286
REMARK  114  A    between atoms: _289  and  _291
REMARK  115  A    between atoms: _291  and  _292
REMARK  116  A    between atoms: _291  and  _294
REMARK  117  A    between atoms: _294  and  _295
REMARK  118  A    between atoms: _298  and  _300
REMARK  119  A    between atoms: _300  and  _301
REMARK  120  A    between atoms: _304  and  _306
REMARK  121  A    between atoms: _306  and  _307
REMARK  122  A    between atoms: _306  and  _309
REMARK  123  A    between atoms: _309  and  _310
REMARK  124  A    between atoms: _313  and  _315
REMARK  125  A    between atoms: _315  and  _316
REMARK  126  A    between atoms: _315  and  _318
REMARK  127  A    between atoms: _318  and  _319
REMARK  128  A    between atoms: _321  and  _323
REMARK  129  A    between atoms: _323  and  _324
REMARK  130  A    between atoms: _326  and  _328
REMARK  131  A    between atoms: _328  and  _329
REMARK  132  A    between atoms: _328  and  _331
REMARK  133  A    between atoms: _331  and  _332
REMARK  134  A    between atoms: _335  and  _337
REMARK  135  A    between atoms: _337  and  _338
REMARK  136  A    between atoms: _337  and  _340
REMARK  137  A    between atoms: _340  and  _341
REMARK  138  A    between atoms: _344  and  _346
REMARK  139  A    between atoms: _346  and  _347
REMARK  140  A    between atoms: _346  and  _349
REMARK  141  A    between atoms: _349  and  _350
REMARK  142  A    between atoms: _353  and  _355
REMARK  143  A    between atoms: _355  and  _356
REMARK  144  A    between atoms: _355  and  _358
REMARK  145  A    between atoms: _361  and  _363
REMARK  146  A    between atoms: _363  and  _364
REMARK  147  A    between atoms: _363  and  _366
REMARK  148  A    between atoms: _366  and  _367
REMARK  149  A    between atoms: _369  and  _371
REMARK  150  A    between atoms: _371  and  _372
REMARK  151  A    between atoms: _371  and  _374
REMARK  152  A    between atoms: _374  and  _375
REMARK  153  A    between atoms: _378  and  _380
REMARK  154  A    between atoms: _380  and  _381
REMARK  155  A    between atoms: _380  and  _383
REMARK  156  A    between atoms: _383  and  _384
REMARK  157  A    between atoms: _389  and  _390
REMARK  158  A    between atoms: _392  and  _394
REMARK  159  A    between atoms: _394  and  _395
REMARK  160  A    between atoms: _394  and  _397
REMARK  161  A    between atoms: _397  and  _398
REMARK  162  A    between atoms: _398  and  _399
REMARK  163  A    between atoms: _399  and  _400
REMARK  164  A    between atoms: _409  and  _411
REMARK  165  A    between atoms: _411  and  _412
REMARK  166  A    between atoms: _411  and  _414
REMARK  167  A    between atoms: _414  and  _415
REMARK  168  A    between atoms: _417  and  _419
REMARK  169  A    between atoms: _419  and  _420
REMARK  170  A    between atoms: _419  and  _422
REMARK  171  A    between atoms: _424  and  _426
REMARK  172  A    between atoms: _426  and  _427
REMARK  173  A    between atoms: _426  and  _429
REMARK  174  A    between atoms: _429  and  _430
REMARK  175  A    between atoms: _433  and  _435
REMARK  176  A    between atoms: _435  and  _436
REMARK  177  A    between atoms: _435  and  _438
REMARK  178  A    between atoms: _441  and  _443
REMARK  179  A    between atoms: _443  and  _444
REMARK  180  A    between atoms: _443  and  _446
REMARK  181  A    between atoms: _446  and  _447
REMARK  182  A    between atoms: _447  and  _448
REMARK  183  A    between atoms: _450  and  _452
REMARK  184  A    between atoms: _452  and  _453
REMARK  185  A    between atoms: _452  and  _455
REMARK  186  A    between atoms: _455  and  _456
REMARK  187  A    between atoms: _456  and  _457
REMARK  188  A    between atoms: _457  and  _458
REMARK  189  A    between atoms: _467  and  _469
REMARK  190  A    between atoms: _469  and  _470
REMARK  191  A    between atoms: _473  and  _474
REMARK  192  A    between atoms: _479  and  _481
REMARK  193  A    between atoms: _481  and  _482
REMARK  194  A    between atoms: _481  and  _484
REMARK  195  A    between atoms: _484  and  _485
REMARK  196  A    between atoms: _485  and  _486
REMARK  197  A    between atoms: _489  and  _491
REMARK  198  A    between atoms: _491  and  _492
REMARK  199  A    between atoms: _491  and  _494
REMARK  200  A    between atoms: _494  and  _495
REMARK  201  A    between atoms: _498  and  _500
REMARK  202  A    between atoms: _500  and  _501
REMARK  203  A    between atoms: _500  and  _503
REMARK  204  A    between atoms: _503  and  _504
REMARK  205  A    between atoms: _514  and  _516
REMARK  206  A    between atoms: _516  and  _517
REMARK  207  A    between atoms: _516  and  _519
REMARK  208  A    between atoms: _522  and  _524
REMARK  209  A    between atoms: _524  and  _525
REMARK  210  A    between atoms: _524  and  _527
REMARK  211  A    between atoms: _527  and  _528
REMARK                            x       y       z     vdW  Elec       q    Type
REMARK                         _______ _______ _______ _____ _____    ______ ____
ROOT
ATOM      1  CA  THR A   4      -5.224  37.117  -1.439  0.00  0.00    +0.176 C 
ENDROOT
BRANCH   1   2
ATOM      2  C   THR A   4      -5.890  38.170  -2.331  0.00  0.00    +0.243 C 
ATOM      3  O   THR A   4      -5.663  39.368  -2.189  0.00  0.00    -0.273 OA
ATOM      4  N   THR A   5      -6.709  37.704  -3.260  0.00  0.00    -0.295 N 
ATOM      5  H   THR A   5      -6.764  36.678  -3.419  0.00  0.00    +0.150 HD
BRANCH   4   6
ATOM      6  CA  THR A   5      -7.535  38.593  -4.065  0.00  0.00    +0.176 C 
BRANCH   6   7
ATOM      7  C   THR A   5      -8.969  38.549  -3.517  0.00  0.00    +0.243 C 
ATOM      8  O   THR A   5      -9.498  37.474  -3.254  0.00  0.00    -0.273 OA
ATOM      9  N   THR A   6      -9.604  39.711  -3.353  0.00  0.00    -0.295 N 
ATOM     10  H   THR A   6      -9.122  40.596  -3.611  0.00  0.00    +0.150 HD
BRANCH   9  11
ATOM     11  CA  THR A   6     -10.963  39.765  -2.818  0.00  0.00    +0.176 C 
BRANCH  11  12
ATOM     12  C   THR A   6     -11.925  40.182  -3.931  0.00  0.00    +0.243 C 
ATOM     13  N   VAL A   7     -13.037  39.472  -4.045  0.00  0.00    -0.298 N 
ATOM     14  H   VAL A   7     -13.193  38.653  -3.423  0.00  0.00    +0.150 HD
ATOM     15  O   THR A   6     -11.696  41.174  -4.611  0.00  0.00    -0.273 OA
BRANCH  13  16
ATOM     16  CA  VAL A   7     -14.045  39.830  -5.037  0.00  0.00    +0.137 C 
BRANCH  16  17
ATOM     17  CB  VAL A   7     -14.888  38.623  -5.450  0.00  0.00    +0.026 C 
ATOM     18  CG2 VAL A   7     -13.983  37.424  -5.780  0.00  0.00    +0.002 C 
ATOM     19  CG1 VAL A   7     -15.766  38.987  -6.643  0.00  0.00    +0.002 C 
ENDBRANCH  16  17
BRANCH  16  20
ATOM     20  C   VAL A   7     -14.946  40.933  -4.481  0.00  0.00    +0.227 C 
ATOM     21  O   VAL A   7     -15.662  40.703  -3.523  0.00  0.00    -0.286 OA
ENDBRANCH  16  20
ENDBRANCH  13  16
ENDBRANCH  11  12
BRANCH  11  22
ATOM     22  CB  THR A   6     -11.088  40.796  -1.652  0.00  0.00    +0.137 C 
ATOM     23  CG2 THR A   6     -12.484  40.760  -1.005  0.00  0.00    +0.034 C 
BRANCH  22  24
ATOM     24  OG1 THR A   6     -10.108  40.508  -0.656  0.00  0.00    -0.382 OA
ATOM     25  HG1 THR A   6      -9.205  40.569  -1.056  0.00  0.00    +0.210 HD
ENDBRANCH  22  24
ENDBRANCH  11  22
ENDBRANCH   9  11
ENDBRANCH   6   7
BRANCH   6  26
ATOM     26  CB  THR A   5      -7.528  38.106  -5.516  0.00  0.00    +0.137 C 
ATOM     27  CG2 THR A   5      -8.613  38.796  -6.333  0.00  0.00    +0.034 C 
BRANCH  26  28
ATOM     28  OG1 THR A   5      -6.243  38.347  -6.097  0.00  0.00    -0.382 OA
ATOM     29  HG1 THR A   5      -5.553  37.859  -5.582  0.00  0.00    +0.210 HD
ENDBRANCH  26  28
ENDBRANCH   6  26
ENDBRANCH   4   6
ENDBRANCH   1   2
BRANCH   1  31
ATOM     30  C   GLY A   3      -3.180  36.206  -2.361  0.00  0.00    +0.243 C 
ATOM     31  N   THR A   4      -3.772  37.086  -1.569  0.00  0.00    -0.295 N 
ATOM     32  H   THR A   4      -3.194  37.764  -1.033  0.00  0.00    +0.150 HD
ATOM     33  O   GLY A   3      -3.786  35.583  -3.239  0.00  0.00    -0.273 OA
BRANCH  30  34
ATOM     34  CA  GLY A   3      -1.666  36.114  -2.245  0.00  0.00    +0.176 C 
BRANCH  34  36
ATOM     35  C   SER A   2      -0.337  36.025  -4.264  0.00  0.00    +0.243 C 
ATOM     36  N   GLY A   3      -1.096  35.402  -3.368  0.00  0.00    -0.295 N 
ATOM     37  H   GLY A   3      -1.283  34.385  -3.476  0.00  0.00    +0.150 HD
ATOM     38  O   SER A   2      -0.100  37.231  -4.207  0.00  0.00    -0.273 OA
BRANCH  35  39
ATOM     39  CA  SER A   2       0.163  35.177  -5.421  0.00  0.00    +0.178 C 
BRANCH  39  41
ATOM     40  C   LEU A   1      -0.905  36.265  -7.316  0.00  0.00    +0.238 C 
ATOM     41  N   SER A   2       0.215  35.920  -6.683  0.00  0.00    -0.295 N 
ATOM     42  H   SER A   2       1.136  36.181  -7.089  0.00  0.00    +0.150 HD
ATOM     43  O   LEU A   1      -2.022  36.105  -6.816  0.00  0.00    -0.274 OA
BRANCH  40  44
ATOM     44  CA  LEU A   1      -0.756  36.951  -8.675  0.00  0.00    +0.145 C 
BRANCH  44  45
ATOM     45  N   LEU A   1       0.585  37.437  -8.948  0.00  0.00    -0.238 NA
ATOM     46  H   LEU A   1       1.227  36.856  -9.524  0.00  0.00    +0.142 HD
ENDBRANCH  44  45
BRANCH  44  47
ATOM     47  CB  LEU A   1      -1.194  36.028  -9.812  0.00  0.00    +0.026 C 
BRANCH  47  48
ATOM     48  CG  LEU A   1      -2.671  35.868 -10.149  0.00  0.00    +0.002 C 
ATOM     49  CD2 LEU A   1      -3.343  37.229 -10.340  0.00  0.00    +0.000 C 
ATOM     50  CD1 LEU A   1      -2.781  35.014 -11.408  0.00  0.00    +0.000 C 
ENDBRANCH  47  48
ENDBRANCH  44  47
ENDBRANCH  40  44
ENDBRANCH  39  41
BRANCH  39  51
ATOM     51  CB  SER A   2       1.520  34.541  -5.087  0.00  0.00    +0.166 C 
BRANCH  51  52
ATOM     52  OG  SER A   2       1.861  33.563  -6.060  0.00  0.00    -0.380 OA
ATOM     53  H   SER A   2       2.737  33.163  -5.831  0.00  0.00    +0.211 HD
ENDBRANCH  51  52
ENDBRANCH  39  51
ENDBRANCH  35  39
ENDBRANCH  34  36
ENDBRANCH  30  34
ENDBRANCH   1  31
BRANCH   1  54
ATOM     54  CB  THR A   4      -5.637  37.329   0.026  0.00  0.00    +0.137 C 
ATOM     55  CG2 THR A   4      -7.144  37.133   0.199  0.00  0.00    +0.034 C 
BRANCH  54  56
ATOM     56  OG1 THR A   4      -4.943  36.384   0.849  0.00  0.00    -0.382 OA
ATOM     57  HG1 THR A   4      -5.179  35.465   0.565  0.00  0.00    +0.210 HD
ENDBRANCH  54  56
ENDBRANCH   1  54
TORSDOF 25
REMARK  Name = ../refined-set-2016/3brn/3brn_pocket.pdb
REMARK  211 active torsions:
REMARK  status: ('A' for Active; 'I' for Inactive)
REMARK    1  A    between atoms: _1  and  _3
REMARK    2  A    between atoms: _3  and  _4
REMARK    3  A    between atoms: _7  and  _9
REMARK    4  A    between atoms: _9  and  _10
REMARK    5  A    between atoms: _9  and  _12
REMARK    6  A    between atoms: _12  and  _13
REMARK    7  A    between atoms: _18  and  _19
REMARK    8  A    between atoms: _21  and  _23
REMARK    9  A    between atoms: _23  and  _24
REMARK   10  A    between atoms: _23  and  _26
REMARK   11  A    between atoms: _26  and  _27
REMARK   12  A    between atoms: _27  and  _28
REMARK   13  A    between atoms: _28  and  _29
REMARK   14  A    between atoms: _29  and  _30
REMARK   15  A    between atoms: _34  and  _36
REMARK   16  A    between atoms: _36  and  _37
REMARK   17  A    between atoms: _36  and  _39
REMARK   18  A    between atoms: _39  and  _40
REMARK   19  A    between atoms: _42  and  _44
REMARK   20  A    between atoms: _44  and  _45
REMARK   21  A    between atoms: _44  and  _47
REMARK   22  A    between atoms: _50  and  _52
REMARK   23  A    between atoms: _52  and  _53
REMARK   24  A    between atoms: _52  and  _55
REMARK   25  A    between atoms: _55  and  _56
REMARK   26  A    between atoms: _61  and  _63
REMARK   27  A    between atoms: _63  and  _64
REMARK   28  A    between atoms: _67  and  _68
REMARK   29  A    between atoms: _73  and  _75
REMARK   30  A    between atoms: _75  and  _76
REMARK   31  A    between atoms: _78  and  _80
REMARK   32  A    between atoms: _80  and  _81
REMARK   33  A    between atoms: _80  and  _83
REMARK   34  A    between atoms: _83  and  _84
REMARK   35  A    between atoms: _89  and  _90
REMARK   36  A    between atoms: _92  and  _94
REMARK   37  A    between atoms: _94  and  _95
REMARK   38  A    between atoms: _94  and  _97
REMARK   39  A    between atoms: _97  and  _98
REMARK   40  A    between atoms: _103  and  _104
REMARK   41  A    between atoms: _106  and  _108
REMARK   42  A    between atoms: _108  and  _109
REMARK   43  A    between atoms: _108  and  _111
REMARK   44  A    between atoms: _111  and  _112
REMARK   45  A    between atoms: _115  and  _117
REMARK   46  A    between atoms: _117  and  _118
REMARK   47  A    between atoms: _117  and  _120
REMARK   48  A    between atoms: _120  and  _121
REMARK   49  A    between atoms: _126  and  _127
REMARK   50  A    between atoms: _129  and  _131
REMARK   51  A    between atoms: _131  and  _132
REMARK   52  A    between atoms: _131  and  _134
REMARK   53  A    between atoms: _137  and  _139
REMARK   54  A    between atoms: _139  and  _140
REMARK   55  A    between atoms: _139  and  _142
REMARK   56  A    between atoms: _142  and  _143
REMARK   57  A    between atoms: _146  and  _148
REMARK   58  A    between atoms: _148  and  _149
REMARK   59  A    between atoms: _148  and  _151
REMARK   60  A    between atoms: _155  and  _156
REMARK   61  A    between atoms: _161  and  _163
REMARK   62  A    between atoms: _163  and  _164
REMARK   63  A    between atoms: _163  and  _166
REMARK   64  A    between atoms: _166  and  _167
REMARK   65  A    between atoms: _170  and  _172
REMARK   66  A    between atoms: _172  and  _173
REMARK   67  A    between atoms: _172  and  _175
REMARK   68  A    between atoms: _175  and  _176
REMARK   69  A    between atoms: _179  and  _181
REMARK   70  A    between atoms: _181  and  _182
REMARK   71  A    between atoms: _181  and  _184
REMARK   72  A    between atoms: _184  and  _185
REMARK   73  A    between atoms: _187  and  _189
REMARK   74  A    between atoms: _189  and  _190
REMARK   75  A    between atoms: _189  and  _192
REMARK   76  A    between atoms: _192  and  _193
REMARK   77  A    between atoms: _199  and  _201
REMARK   78  A    between atoms: _201  and  _202
REMARK   79  A    between atoms: _201  and  _204
REMARK   80  A    between atoms: _204  and  _205
REMARK   81  A    between atoms: _208  and  _210
REMARK   82  A    between atoms: _210  and  _211
REMARK   83  A    between atoms: _210  and  _213
REMARK   84  A    between atoms: _213  and  _214
REMARK   85  A    between atoms: _219  and  _220
REMARK   86  A    between atoms: _222  and  _224
REMARK   87  A    between atoms: _224  and  _225
REMARK   88  A    between atoms: _228  and  _230
REMARK   89  A    between atoms: _230  and  _231
REMARK   90  A    between atoms: _230  and  _233
REMARK   91  A    between atoms: _233  and  _234
REMARK   92  A    between atoms: _237  and  _239
REMARK   93  A    between atoms: _239  and  _240
REMARK   94  A    between atoms: _239  and  _242
REMARK   95  A    between atoms: _245  and  _247
REMARK   96  A    between atoms: _247  and  _248
REMARK   97  A    between atoms: _247  and  _250
REMARK   98  A    between atoms: _250  and  _251
REMARK   99  A    between atoms: _254  and  _256
REMARK  100  A    between atoms: _256  and  _257
REMARK  101  A    between atoms: _256  and  _259
REMARK  102  A    between atoms: _262  and  _264
REMARK  103  A    between atoms: _264  and  _265
REMARK  104  A    between atoms: _264  and  _267
REMARK  105  A    between atoms: _267  and  _268
REMARK  106  A    between atoms: _271  and  _273
REMARK  107  A    between atoms: _273  and  _274
REMARK  108  A    between atoms: _273  and  _276
REMARK  109  A    between atoms: _276  and  _277
REMARK  110  A    between atoms: _277  and  _278
REMARK  111  A    between atoms: _281  and  _283
REMARK  112  A    between atoms: _283  and  _284
REMARK  113  A    between atoms: _283  and  _286
REMARK  114  A    between atoms: _289  and  _291
REMARK  115  A    between atoms: _291  and  _292
REMARK  116  A    between atoms: _291  and  _294
REMARK  117  A    between atoms: _294  and  _295
REMARK  118  A    between atoms: _298  and  _300
REMARK  119  A    between atoms: _300  and  _301
REMARK  120  A    between atoms: _304  and  _306
REMARK  121  A    between atoms: _306  and  _307
REMARK  122  A    between atoms: _306  and  _309
REMARK  123  A    between atoms: _309  and  _310
REMARK  124  A    between atoms: _313  and  _315
REMARK  125  A    between atoms: _315  and  _316
REMARK  126  A    between atoms: _315  and  _318
REMARK  127  A    between atoms: _318  and  _319
REMARK  128  A    between atoms: _321  and  _323
REMARK  129  A    between atoms: _323  and  _324
REMARK  130  A    between atoms: _326  and  _328
REMARK  131  A    between atoms: _328  and  _329
REMARK  132  A    between atoms: _328  and  _331
REMARK  133  A    between atoms: _331  and  _332
REMARK  134  A    between atoms: _335  and  _337
REMARK  135  A    between atoms: _337  and  _338
REMARK  136  A    between atoms: _337  and  _340
REMARK  137  A    between atoms: _340  and  _341
REMARK  138  A    between atoms: _344  and  _346
REMARK  139  A    between atoms: _346  and  _347
REMARK  140  A    between atoms: _346  and  _349
REMARK  141  A    between atoms: _349  and  _350
REMARK  142  A    between atoms: _353  and  _355
REMARK  143  A    between atoms: _355  and  _356
REMARK  144  A    between atoms: _355  and  _358
REMARK  145  A    between atoms: _361  and  _363
REMARK  146  A    between atoms: _363  and  _364
REMARK  147  A    between atoms: _363  and  _366
REMARK  148  A    between atoms: _366  and  _367
REMARK  149  A    between atoms: _369  and  _371
REMARK  150  A    between atoms: _371  and  _372
REMARK  151  A    between atoms: _371  and  _374
REMARK  152  A    between atoms: _374  and  _375
REMARK  153  A    between atoms: _378  and  _380
REMARK  154  A    between atoms: _380  and  _381
REMARK  155  A    between atoms: _380  and  _383
REMARK  156  A    between atoms: _383  and  _384
REMARK  157  A    between atoms: _389  and  _390
REMARK  158  A    between atoms: _392  and  _394
REMARK  159  A    between atoms: _394  and  _395
REMARK  160  A    between atoms: _394  and  _397
REMARK  161  A    between atoms: _397  and  _398
REMARK  162  A    between atoms: _398  and  _399
REMARK  163  A    between atoms: _399  and  _400
REMARK  164  A    between atoms: _409  and  _411
REMARK  165  A    between atoms: _411  and  _412
REMARK  166  A    between atoms: _411  and  _414
REMARK  167  A    between atoms: _414  and  _415
REMARK  168  A    between atoms: _417  and  _419
REMARK  169  A    between atoms: _419  and  _420
REMARK  170  A    between atoms: _419  and  _422
REMARK  171  A    between atoms: _424  and  _426
REMARK  172  A    between atoms: _426  and  _427
REMARK  173  A    between atoms: _426  and  _429
REMARK  174  A    between atoms: _429  and  _430
REMARK  175  A    between atoms: _433  and  _435
REMARK  176  A    between atoms: _435  and  _436
REMARK  177  A    between atoms: _435  and  _438
REMARK  178  A    between atoms: _441  and  _443
REMARK  179  A    between atoms: _443  and  _444
REMARK  180  A    between atoms: _443  and  _446
REMARK  181  A    between atoms: _446  and  _447
REMARK  182  A    between atoms: _447  and  _448
REMARK  183  A    between atoms: _450  and  _452
REMARK  184  A    between atoms: _452  and  _453
REMARK  185  A    between atoms: _452  and  _455
REMARK  186  A    between atoms: _455  and  _456
REMARK  187  A    between atoms: _456  and  _457
REMARK  188  A    between atoms: _457  and  _458
REMARK  189  A    between atoms: _467  and  _469
REMARK  190  A    between atoms: _469  and  _470
REMARK  191  A    between atoms: _473  and  _474
REMARK  192  A    between atoms: _479  and  _481
REMARK  193  A    between atoms: _481  and  _482
REMARK  194  A    between atoms: _481  and  _484
REMARK  195  A    between atoms: _484  and  _485
REMARK  196  A    between atoms: _485  and  _486
REMARK  197  A    between atoms: _489  and  _491
REMARK  198  A    between atoms: _491  and  _492
REMARK  199  A    between atoms: _491  and  _494
REMARK  200  A    between atoms: _494  and  _495
REMARK  201  A    between atoms: _498  and  _500
REMARK  202  A    between atoms: _500  and  _501
REMARK  203  A    between atoms: _500  and  _503
REMARK  204  A    between atoms: _503  and  _504
REMARK  205  A    between atoms: _514  and  _516
REMARK  206  A    between atoms: _516  and  _517
REMARK  207  A    between atoms: _516  and  _519
REMARK  208  A    between atoms: _522  and  _524
REMARK  209  A    between atoms: _524  and  _525
REMARK  210  A    between atoms: _524  and  _527
REMARK  211  A    between atoms: _527  and  _528
REMARK                            x       y       z     vdW  Elec       q    Type
REMARK                         _______ _______ _______ _____ _____    ______ ____
ROOT
ATOM      1  CA  CYS A   6     -16.542  40.558 -15.468  0.00  0.00    +0.160 C 
ENDROOT
BRANCH   1   3
ATOM      2  C   SER A   5     -17.285  39.176 -17.299  0.00  0.00    +0.243 C 
ATOM      3  N   CYS A   6     -17.498  39.632 -16.071  0.00  0.00    -0.296 N 
ATOM      4  H   CYS A   6     -18.341  39.332 -15.541  0.00  0.00    +0.150 HD
ATOM      5  O   SER A   5     -16.276  39.465 -17.942  0.00  0.00    -0.273 OA
BRANCH   2   6
ATOM      6  CA  SER A   5     -18.404  38.375 -17.951  0.00  0.00    +0.178 C 
BRANCH   6   8
ATOM      7  C   ARG A   4     -19.276  36.286 -17.055  0.00  0.00    +0.241 C 
ATOM      8  N   SER A   5     -19.242  37.614 -17.032  0.00  0.00    -0.295 N 
ATOM      9  H   SER A   5     -19.828  38.124 -16.341  0.00  0.00    +0.150 HD
ATOM     10  O   ARG A   4     -18.496  35.607 -17.723  0.00  0.00    -0.273 OA
BRANCH   7  11
ATOM     11  CA  ARG A   4     -20.349  35.624 -16.196  0.00  0.00    +0.149 C 
BRANCH  11  14
ATOM     12  C   TYR A   3     -20.329  34.979 -13.849  0.00  0.00    +0.241 C 
ATOM     13  O   TYR A   3     -20.487  33.787 -14.112  0.00  0.00    -0.273 OA
ATOM     14  N   ARG A   4     -20.141  35.907 -14.781  0.00  0.00    -0.297 N 
ATOM     15  H   ARG A   4     -19.838  36.859 -14.494  0.00  0.00    +0.150 HD
BRANCH  12  16
ATOM     16  CA  TYR A   3     -20.342  35.468 -12.404  0.00  0.00    +0.153 C 
BRANCH  16  18
ATOM     17  C   ASP A   2     -21.647  37.509 -12.650  0.00  0.00    +0.241 C 
ATOM     18  N   TYR A   3     -20.499  36.916 -12.338  0.00  0.00    -0.297 N 
ATOM     19  H   TYR A   3     -19.692  37.500 -12.039  0.00  0.00    +0.150 HD
ATOM     20  O   ASP A   2     -22.583  36.912 -13.175  0.00  0.00    -0.273 OA
BRANCH  17  21
ATOM     21  CA  ASP A   2     -21.742  38.999 -12.315  0.00  0.00    +0.160 C 
BRANCH  21  24
ATOM     22  C   SER A   1     -20.338  39.734 -10.469  0.00  0.00    +0.241 C 
ATOM     23  O   SER A   1     -21.287  39.817  -9.696  0.00  0.00    -0.274 OA
ATOM     24  N   ASP A   2     -20.473  39.474 -11.768  0.00  0.00    -0.297 N 
ATOM     25  H   ASP A   2     -19.662  39.611 -12.404  0.00  0.00    +0.150 HD
BRANCH  22  26
ATOM     26  CA  SER A   1     -18.944  40.044  -9.974  0.00  0.00    +0.174 C 
BRANCH  26  27
ATOM     27  N   SER A   1     -19.055  40.925  -8.816  0.00  0.00    -0.236 NA
ATOM     28  H   SER A   1     -19.950  40.987  -8.290  0.00  0.00    +0.142 HD
ENDBRANCH  26  27
BRANCH  26  29
ATOM     29  CB  SER A   1     -18.251  38.745  -9.573  0.00  0.00    +0.163 C 
BRANCH  29  30
ATOM     30  OG  SER A   1     -18.033  37.922 -10.705  0.00  0.00    -0.380 OA
ATOM     31  H   SER A   1     -17.461  38.402 -11.355  0.00  0.00    +0.211 HD
ENDBRANCH  29  30
ENDBRANCH  26  29
ENDBRANCH  22  26
ENDBRANCH  21  24
BRANCH  21  32
ATOM     32  CB  ASP A   2     -22.171  39.827 -13.534  0.00  0.00    +0.143 C 
BRANCH  32  33
ATOM     33  CG  ASP A   2     -21.259  39.630 -14.732  0.00  0.00    +0.367 C 
ATOM     34  OD2 ASP A   2     -20.246  38.904 -14.616  0.00  0.00    -0.246 OA
ATOM     35  OD1 ASP A   2     -21.569  40.202 -15.796  0.00  0.00    -0.246 OA
ENDBRANCH  32  33
ENDBRANCH  21  32
ENDBRANCH  17  21
ENDBRANCH  16  18
BRANCH  16  36
ATOM     36  CB  TYR A   3     -21.457  34.772 -11.623  0.00  0.00    +0.055 C 
BRANCH  36  37
ATOM     37  CG  TYR A   3     -21.424  35.042 -10.136  0.00  0.00    -0.020 A 
ATOM     38  CD2 TYR A   3     -22.560  34.874  -9.354  0.00  0.00    -0.001 A 
ATOM     39  CE2 TYR A   3     -22.535  35.120  -7.995  0.00  0.00    +0.036 A 
ATOM     40  CZ  TYR A   3     -21.364  35.539  -7.400  0.00  0.00    +0.134 A 
ATOM     41  CE1 TYR A   3     -20.223  35.713  -8.154  0.00  0.00    +0.036 A 
ATOM     42  CD1 TYR A   3     -20.258  35.465  -9.513  0.00  0.00    -0.001 A 
BRANCH  40  43
ATOM     43  OH  TYR A   3     -21.334  35.785  -6.046  0.00  0.00    -0.506 OA
ATOM     44  HH  TYR A   3     -20.424  36.075  -5.785  0.00  0.00    +0.292 HD
ENDBRANCH  40  43
ENDBRANCH  36  37
ENDBRANCH  16  36
ENDBRANCH  12  16
ENDBRANCH  11  14
BRANCH  11  45
ATOM     45  CB  ARG A   4     -21.737  36.091 -16.638  0.00  0.00    +0.033 C 
BRANCH  45  46
ATOM     46  CG  ARG A   4     -22.807  35.013 -16.565  0.00  0.00    +0.045 C 
BRANCH  46  47
ATOM     47  CD  ARG A   4     -24.066  35.434 -17.306  0.00  0.00    +0.174 C 
BRANCH  47  48
ATOM     48  NE  ARG A   4     -24.860  36.388 -16.538  0.00  0.00    -0.265 N 
ATOM     49  HE  ARG A   4     -24.386  36.914 -15.777  0.00  0.00    +0.259 HD
ATOM     50  CZ  ARG A   4     -26.150  36.627 -16.749  0.00  0.00    +0.342 C 
ATOM     51  NH2 ARG A   4     -26.793  37.513 -16.001  0.00  0.00    -0.292 N 
ATOM     52 HH21 ARG A   4     -26.288  38.022 -15.248  0.00  0.00    +0.255 HD
ATOM     53 HH22 ARG A   4     -27.803  37.699 -16.167  0.00  0.00    +0.255 HD
ATOM     54  NH1 ARG A   4     -26.798  35.981 -17.709  0.00  0.00    -0.292 N 
ATOM     55 HH11 ARG A   4     -27.808  36.169 -17.873  0.00  0.00    +0.255 HD
ATOM     56 HH12 ARG A   4     -26.297  35.286 -18.298  0.00  0.00    +0.255 HD
ENDBRANCH  47  48
ENDBRANCH  46  47
ENDBRANCH  45  46
ENDBRANCH  11  45
ENDBRANCH   7  11
ENDBRANCH   6   8
BRANCH   6  57
ATOM     57  CB  SER A   5     -19.264  39.291 -18.826  0.00  0.00    +0.166 C 
BRANCH  57  58
ATOM     58  OG  SER A   5     -20.006  40.202 -18.038  0.00  0.00    -0.380 OA
ATOM     59  H   SER A   5     -20.600  39.699 -17.426  0.00  0.00    +0.211 HD
ENDBRANCH  57  58
ENDBRANCH   6  57
ENDBRANCH   2   6
ENDBRANCH   1   3
BRANCH   1  60
ATOM     60  C   CYS A   6     -16.507  40.487 -13.945  0.00  0.00    +0.242 C 
ATOM     61  O   CYS A   6     -17.481  40.087 -13.307  0.00  0.00    -0.273 OA
ATOM     62  N   ASP A   7     -15.397  40.889 -13.352  0.00  0.00    -0.297 N 
ATOM     63  H   ASP A   7     -14.600  41.179 -13.953  0.00  0.00    +0.150 HD
BRANCH  62  64
ATOM     64  CA  ASP A   7     -15.224  40.950 -11.923  0.00  0.00    +0.160 C 
BRANCH  64  65
ATOM     65  C   ASP A   7     -14.549  42.249 -11.562  0.00  0.00    +0.241 C 
ATOM     66  N   VAL A   8     -14.808  42.769 -10.380  0.00  0.00    -0.297 N 
ATOM     67  H   VAL A   8     -15.635  42.437  -9.843  0.00  0.00    +0.150 HD
ATOM     68  O   ASP A   7     -13.740  42.731 -12.313  0.00  0.00    -0.273 OA
BRANCH  66  69
ATOM     69  CA  VAL A   8     -13.951  43.805  -9.813  0.00  0.00    +0.149 C 
BRANCH  69  70
ATOM     70  C   VAL A   8     -13.326  43.257  -8.527  0.00  0.00    +0.241 C 
ATOM     71  O   VAL A   8     -14.035  42.779  -7.655  0.00  0.00    -0.273 OA
ATOM     72  N   MET A   9     -12.004  43.361  -8.414  0.00  0.00    -0.297 N 
ATOM     73  H   MET A   9     -11.478  43.895  -9.135  0.00  0.00    +0.150 HD
BRANCH  72  74
ATOM     74  CA  MET A   9     -11.273  42.756  -7.320  0.00  0.00    +0.149 C 
BRANCH  74  75
ATOM     75  C   MET A   9     -10.495  43.830  -6.565  0.00  0.00    +0.241 C 
ATOM     76  N   ARG A  10     -10.113  43.482  -5.340  0.00  0.00    -0.297 N 
ATOM     77  H   ARG A  10     -10.639  42.746  -4.827  0.00  0.00    +0.150 HD
ATOM     78  O   MET A   9     -10.095  44.854  -7.141  0.00  0.00    -0.273 OA
BRANCH  76  79
ATOM     79  CA  ARG A  10      -8.961  44.122  -4.706  0.00  0.00    +0.149 C 
BRANCH  79  80
ATOM     80  C   ARG A  10      -7.829  43.082  -4.790  0.00  0.00    +0.241 C 
ATOM     81  O   ARG A  10      -7.975  41.986  -4.278  0.00  0.00    -0.273 OA
ATOM     82  N   GLY A  11      -6.757  43.397  -5.510  0.00  0.00    -0.295 N 
ATOM     83  H   GLY A  11      -6.719  44.327  -5.973  0.00  0.00    +0.150 HD
BRANCH  82  84
ATOM     84  CA  GLY A  11      -5.619  42.473  -5.675  0.00  0.00    +0.176 C 
BRANCH  84  85
ATOM     85  C   GLY A  11      -4.776  42.377  -4.414  0.00  0.00    +0.246 C 
ATOM     86  O   GLY A  11      -5.012  43.100  -3.447  0.00  0.00    -0.273 OA
ATOM     87  N   PRO A  12      -3.819  41.438  -4.382  0.00  0.00    -0.273 N 
ATOM     88  CA  PRO A  12      -3.106  41.193  -3.117  0.00  0.00    +0.140 C 
ATOM     89  CB  PRO A  12      -2.178  40.008  -3.451  0.00  0.00    +0.030 C 
ATOM     90  CG  PRO A  12      -2.757  39.389  -4.641  0.00  0.00    +0.024 C 
ATOM     91  CD  PRO A  12      -3.454  40.459  -5.423  0.00  0.00    +0.094 C 
BRANCH  88  92
ATOM     92  C   PRO A  12      -2.316  42.396  -2.582  0.00  0.00    +0.227 C 
ATOM     93  O   PRO A  12      -2.303  42.619  -1.373  0.00  0.00    -0.286 OA
ENDBRANCH  88  92
ENDBRANCH  84  85
ENDBRANCH  82  84
ENDBRANCH  79  80
BRANCH  79  94
ATOM     94  CB  ARG A  10      -9.248  44.457  -3.241  0.00  0.00    +0.033 C 
BRANCH  94  95
ATOM     95  CG  ARG A  10      -8.112  45.248  -2.572  0.00  0.00    +0.045 C 
BRANCH  95  96
ATOM     96  CD  ARG A  10      -8.427  45.574  -1.102  0.00  0.00    +0.174 C 
BRANCH  96  97
ATOM     97  NE  ARG A  10      -9.602  46.434  -1.002  0.00  0.00    -0.265 N 
ATOM     98  CZ  ARG A  10     -10.761  46.085  -0.449  0.00  0.00    +0.342 C 
ATOM     99  NH2 ARG A  10     -10.885  44.932   0.204  0.00  0.00    -0.292 N 
ATOM    100 HH21 ARG A  10     -11.797  44.672   0.631  0.00  0.00    +0.255 HD
ATOM    101 HH22 ARG A  10     -10.070  44.291   0.287  0.00  0.00    +0.255 HD
ATOM    102  NH1 ARG A  10     -11.791  46.918  -0.520  0.00  0.00    -0.292 N 
ATOM    103 HH11 ARG A  10     -12.702  46.656  -0.092  0.00  0.00    +0.255 HD
ATOM    104 HH12 ARG A  10     -11.688  47.833  -1.004  0.00  0.00    +0.255 HD
ATOM    105  HE  ARG A  10      -9.528  47.395  -1.394  0.00  0.00    +0.259 HD
ENDBRANCH  96  97
ENDBRANCH  95  96
ENDBRANCH  94  95
ENDBRANCH  79  94
ENDBRANCH  76  79
ENDBRANCH  74  75
BRANCH  74 106
ATOM    106  CB  MET A   9     -10.217  41.777  -7.875  0.00  0.00    +0.041 C 
BRANCH 106 107
ATOM    107  CG  MET A   9     -10.734  40.702  -8.819  0.00  0.00    +0.060 C 
BRANCH 107 108
ATOM    108  SD  MET A   9     -12.014  39.674  -8.107  0.00  0.00    -0.139 S 
ATOM    109  CE  MET A   9     -11.904  38.260  -9.215  0.00  0.00    +0.069 C 
ENDBRANCH 107 108
ENDBRANCH 106 107
ENDBRANCH  74 106
ENDBRANCH  72  74
ENDBRANCH  69  70
BRANCH  69 110
ATOM    110  CB  VAL A   8     -14.765  45.066  -9.496  0.00  0.00    +0.027 C 
ATOM    111  CG2 VAL A   8     -13.862  46.120  -8.792  0.00  0.00    +0.002 C 
ATOM    112  CG1 VAL A   8     -15.387  45.602 -10.797  0.00  0.00    +0.002 C 
ENDBRANCH  69 110
ENDBRANCH  66  69
ENDBRANCH  64  65
BRANCH  64 113
ATOM    113  CB  ASP A   7     -14.286  39.875 -11.428  0.00  0.00    +0.143 C 
BRANCH 113 114
ATOM    114  CG  ASP A   7     -14.594  38.530 -11.957  0.00  0.00    +0.367 C 
ATOM    115  OD2 ASP A   7     -15.636  37.984 -11.650  0.00  0.00    -0.246 OA
ATOM    116  OD1 ASP A   7     -13.740  37.995 -12.625  0.00  0.00    -0.246 OA
ENDBRANCH 113 114
ENDBRANCH  64 113
ENDBRANCH  62  64
ENDBRANCH   1  60
BRANCH   1 117
ATOM    117  CB  CYS A   6     -16.824  41.992 -15.937  0.00  0.00    +0.098 C 
ATOM    118  SG  CYS A   6     -18.425  42.625 -15.391  0.00  0.00    -0.080 S 
ENDBRANCH   1 117
TORSDOF 47
REMARK  Name = ../refined-set-2016/3brn/3brn_pocket.pdb
REMARK  211 active torsions:
REMARK  status: ('A' for Active; 'I' for Inactive)
REMARK    1  A    between atoms: _1  and  _3
REMARK    2  A    between atoms: _3  and  _4
REMARK    3  A    between atoms: _7  and  _9
REMARK    4  A    between atoms: _9  and  _10
REMARK    5  A    between atoms: _9  and  _12
REMARK    6  A    between atoms: _12  and  _13
REMARK    7  A    between atoms: _18  and  _19
REMARK    8  A    between atoms: _21  and  _23
REMARK    9  A    between atoms: _23  and  _24
REMARK   10  A    between atoms: _23  and  _26
REMARK   11  A    between atoms: _26  and  _27
REMARK   12  A    between atoms: _27  and  _28
REMARK   13  A    between atoms: _28  and  _29
REMARK   14  A    between atoms: _29  and  _30
REMARK   15  A    between atoms: _34  and  _36
REMARK   16  A    between atoms: _36  and  _37
REMARK   17  A    between atoms: _36  and  _39
REMARK   18  A    between atoms: _39  and  _40
REMARK   19  A    between atoms: _42  and  _44
REMARK   20  A    between atoms: _44  and  _45
REMARK   21  A    between atoms: _44  and  _47
REMARK   22  A    between atoms: _50  and  _52
REMARK   23  A    between atoms: _52  and  _53
REMARK   24  A    between atoms: _52  and  _55
REMARK   25  A    between atoms: _55  and  _56
REMARK   26  A    between atoms: _61  and  _63
REMARK   27  A    between atoms: _63  and  _64
REMARK   28  A    between atoms: _67  and  _68
REMARK   29  A    between atoms: _73  and  _75
REMARK   30  A    between atoms: _75  and  _76
REMARK   31  A    between atoms: _78  and  _80
REMARK   32  A    between atoms: _80  and  _81
REMARK   33  A    between atoms: _80  and  _83
REMARK   34  A    between atoms: _83  and  _84
REMARK   35  A    between atoms: _89  and  _90
REMARK   36  A    between atoms: _92  and  _94
REMARK   37  A    between atoms: _94  and  _95
REMARK   38  A    between atoms: _94  and  _97
REMARK   39  A    between atoms: _97  and  _98
REMARK   40  A    between atoms: _103  and  _104
REMARK   41  A    between atoms: _106  and  _108
REMARK   42  A    between atoms: _108  and  _109
REMARK   43  A    between atoms: _108  and  _111
REMARK   44  A    between atoms: _111  and  _112
REMARK   45  A    between atoms: _115  and  _117
REMARK   46  A    between atoms: _117  and  _118
REMARK   47  A    between atoms: _117  and  _120
REMARK   48  A    between atoms: _120  and  _121
REMARK   49  A    between atoms: _126  and  _127
REMARK   50  A    between atoms: _129  and  _131
REMARK   51  A    between atoms: _131  and  _132
REMARK   52  A    between atoms: _131  and  _134
REMARK   53  A    between atoms: _137  and  _139
REMARK   54  A    between atoms: _139  and  _140
REMARK   55  A    between atoms: _139  and  _142
REMARK   56  A    between atoms: _142  and  _143
REMARK   57  A    between atoms: _146  and  _148
REMARK   58  A    between atoms: _148  and  _149
REMARK   59  A    between atoms: _148  and  _151
REMARK   60  A    between atoms: _155  and  _156
REMARK   61  A    between atoms: _161  and  _163
REMARK   62  A    between atoms: _163  and  _164
REMARK   63  A    between atoms: _163  and  _166
REMARK   64  A    between atoms: _166  and  _167
REMARK   65  A    between atoms: _170  and  _172
REMARK   66  A    between atoms: _172  and  _173
REMARK   67  A    between atoms: _172  and  _175
REMARK   68  A    between atoms: _175  and  _176
REMARK   69  A    between atoms: _179  and  _181
REMARK   70  A    between atoms: _181  and  _182
REMARK   71  A    between atoms: _181  and  _184
REMARK   72  A    between atoms: _184  and  _185
REMARK   73  A    between atoms: _187  and  _189
REMARK   74  A    between atoms: _189  and  _190
REMARK   75  A    between atoms: _189  and  _192
REMARK   76  A    between atoms: _192  and  _193
REMARK   77  A    between atoms: _199  and  _201
REMARK   78  A    between atoms: _201  and  _202
REMARK   79  A    between atoms: _201  and  _204
REMARK   80  A    between atoms: _204  and  _205
REMARK   81  A    between atoms: _208  and  _210
REMARK   82  A    between atoms: _210  and  _211
REMARK   83  A    between atoms: _210  and  _213
REMARK   84  A    between atoms: _213  and  _214
REMARK   85  A    between atoms: _219  and  _220
REMARK   86  A    between atoms: _222  and  _224
REMARK   87  A    between atoms: _224  and  _225
REMARK   88  A    between atoms: _228  and  _230
REMARK   89  A    between atoms: _230  and  _231
REMARK   90  A    between atoms: _230  and  _233
REMARK   91  A    between atoms: _233  and  _234
REMARK   92  A    between atoms: _237  and  _239
REMARK   93  A    between atoms: _239  and  _240
REMARK   94  A    between atoms: _239  and  _242
REMARK   95  A    between atoms: _245  and  _247
REMARK   96  A    between atoms: _247  and  _248
REMARK   97  A    between atoms: _247  and  _250
REMARK   98  A    between atoms: _250  and  _251
REMARK   99  A    between atoms: _254  and  _256
REMARK  100  A    between atoms: _256  and  _257
REMARK  101  A    between atoms: _256  and  _259
REMARK  102  A    between atoms: _262  and  _264
REMARK  103  A    between atoms: _264  and  _265
REMARK  104  A    between atoms: _264  and  _267
REMARK  105  A    between atoms: _267  and  _268
REMARK  106  A    between atoms: _271  and  _273
REMARK  107  A    between atoms: _273  and  _274
REMARK  108  A    between atoms: _273  and  _276
REMARK  109  A    between atoms: _276  and  _277
REMARK  110  A    between atoms: _277  and  _278
REMARK  111  A    between atoms: _281  and  _283
REMARK  112  A    between atoms: _283  and  _284
REMARK  113  A    between atoms: _283  and  _286
REMARK  114  A    between atoms: _289  and  _291
REMARK  115  A    between atoms: _291  and  _292
REMARK  116  A    between atoms: _291  and  _294
REMARK  117  A    between atoms: _294  and  _295
REMARK  118  A    between atoms: _298  and  _300
REMARK  119  A    between atoms: _300  and  _301
REMARK  120  A    between atoms: _304  and  _306
REMARK  121  A    between atoms: _306  and  _307
REMARK  122  A    between atoms: _306  and  _309
REMARK  123  A    between atoms: _309  and  _310
REMARK  124  A    between atoms: _313  and  _315
REMARK  125  A    between atoms: _315  and  _316
REMARK  126  A    between atoms: _315  and  _318
REMARK  127  A    between atoms: _318  and  _319
REMARK  128  A    between atoms: _321  and  _323
REMARK  129  A    between atoms: _323  and  _324
REMARK  130  A    between atoms: _326  and  _328
REMARK  131  A    between atoms: _328  and  _329
REMARK  132  A    between atoms: _328  and  _331
REMARK  133  A    between atoms: _331  and  _332
REMARK  134  A    between atoms: _335  and  _337
REMARK  135  A    between atoms: _337  and  _338
REMARK  136  A    between atoms: _337  and  _340
REMARK  137  A    between atoms: _340  and  _341
REMARK  138  A    between atoms: _344  and  _346
REMARK  139  A    between atoms: _346  and  _347
REMARK  140  A    between atoms: _346  and  _349
REMARK  141  A    between atoms: _349  and  _350
REMARK  142  A    between atoms: _353  and  _355
REMARK  143  A    between atoms: _355  and  _356
REMARK  144  A    between atoms: _355  and  _358
REMARK  145  A    between atoms: _361  and  _363
REMARK  146  A    between atoms: _363  and  _364
REMARK  147  A    between atoms: _363  and  _366
REMARK  148  A    between atoms: _366  and  _367
REMARK  149  A    between atoms: _369  and  _371
REMARK  150  A    between atoms: _371  and  _372
REMARK  151  A    between atoms: _371  and  _374
REMARK  152  A    between atoms: _374  and  _375
REMARK  153  A    between atoms: _378  and  _380
REMARK  154  A    between atoms: _380  and  _381
REMARK  155  A    between atoms: _380  and  _383
REMARK  156  A    between atoms: _383  and  _384
REMARK  157  A    between atoms: _389  and  _390
REMARK  158  A    between atoms: _392  and  _394
REMARK  159  A    between atoms: _394  and  _395
REMARK  160  A    between atoms: _394  and  _397
REMARK  161  A    between atoms: _397  and  _398
REMARK  162  A    between atoms: _398  and  _399
REMARK  163  A    between atoms: _399  and  _400
REMARK  164  A    between atoms: _409  and  _411
REMARK  165  A    between atoms: _411  and  _412
REMARK  166  A    between atoms: _411  and  _414
REMARK  167  A    between atoms: _414  and  _415
REMARK  168  A    between atoms: _417  and  _419
REMARK  169  A    between atoms: _419  and  _420
REMARK  170  A    between atoms: _419  and  _422
REMARK  171  A    between atoms: _424  and  _426
REMARK  172  A    between atoms: _426  and  _427
REMARK  173  A    between atoms: _426  and  _429
REMARK  174  A    between atoms: _429  and  _430
REMARK  175  A    between atoms: _433  and  _435
REMARK  176  A    between atoms: _435  and  _436
REMARK  177  A    between atoms: _435  and  _438
REMARK  178  A    between atoms: _441  and  _443
REMARK  179  A    between atoms: _443  and  _444
REMARK  180  A    between atoms: _443  and  _446
REMARK  181  A    between atoms: _446  and  _447
REMARK  182  A    between atoms: _447  and  _448
REMARK  183  A    between atoms: _450  and  _452
REMARK  184  A    between atoms: _452  and  _453
REMARK  185  A    between atoms: _452  and  _455
REMARK  186  A    between atoms: _455  and  _456
REMARK  187  A    between atoms: _456  and  _457
REMARK  188  A    between atoms: _457  and  _458
REMARK  189  A    between atoms: _467  and  _469
REMARK  190  A    between atoms: _469  and  _470
REMARK  191  A    between atoms: _473  and  _474
REMARK  192  A    between atoms: _479  and  _481
REMARK  193  A    between atoms: _481  and  _482
REMARK  194  A    between atoms: _481  and  _484
REMARK  195  A    between atoms: _484  and  _485
REMARK  196  A    between atoms: _485  and  _486
REMARK  197  A    between atoms: _489  and  _491
REMARK  198  A    between atoms: _491  and  _492
REMARK  199  A    between atoms: _491  and  _494
REMARK  200  A    between atoms: _494  and  _495
REMARK  201  A    between atoms: _498  and  _500
REMARK  202  A    between atoms: _500  and  _501
REMARK  203  A    between atoms: _500  and  _503
REMARK  204  A    between atoms: _503  and  _504
REMARK  205  A    between atoms: _514  and  _516
REMARK  206  A    between atoms: _516  and  _517
REMARK  207  A    between atoms: _516  and  _519
REMARK  208  A    between atoms: _522  and  _524
REMARK  209  A    between atoms: _524  and  _525
REMARK  210  A    between atoms: _524  and  _527
REMARK  211  A    between atoms: _527  and  _528
REMARK                            x       y       z     vdW  Elec       q    Type
REMARK                         _______ _______ _______ _____ _____    ______ ____
ROOT
ATOM      1  CA  TRP A   3     -11.123  41.481 -15.044  0.00  0.00    +0.153 C 
ENDROOT
BRANCH   1   3
ATOM      2  C   LEU A   2     -10.741  43.770 -14.377  0.00  0.00    +0.241 C 
ATOM      3  N   TRP A   3     -11.380  42.632 -14.221  0.00  0.00    -0.297 N 
ATOM      4  H   TRP A   3     -12.099  42.561 -13.473  0.00  0.00    +0.150 HD
ATOM      5  O   LEU A   2      -9.868  43.941 -15.221  0.00  0.00    -0.273 OA
BRANCH   2   6
ATOM      6  CA  LEU A   2     -11.175  44.922 -13.482  0.00  0.00    +0.149 C 
BRANCH   6   9
ATOM      7  C   GLU A   1      -9.985  45.196 -11.399  0.00  0.00    +0.238 C 
ATOM      8  O   GLU A   1     -10.937  44.769 -10.742  0.00  0.00    -0.274 OA
ATOM      9  N   LEU A   2     -10.015  45.338 -12.714  0.00  0.00    -0.297 N 
ATOM     10  H   LEU A   2      -9.197  45.753 -13.204  0.00  0.00    +0.150 HD
BRANCH   7  11
ATOM     11  CA  GLU A   1      -8.643  45.439 -10.744  0.00  0.00    +0.145 C 
BRANCH  11  12
ATOM     12  N   GLU A   1      -8.796  46.154  -9.477  0.00  0.00    -0.238 NA
ATOM     13  H   GLU A   1      -9.605  45.928  -8.864  0.00  0.00    +0.142 HD
ENDBRANCH  11  12
BRANCH  11  14
ATOM     14  CB  GLU A   1      -7.982  44.079 -10.499  0.00  0.00    +0.038 C 
BRANCH  14  15
ATOM     15  CG  GLU A   1      -6.561  44.192  -9.934  0.00  0.00    +0.116 C 
BRANCH  15  16
ATOM     16  CD  GLU A   1      -5.935  42.837  -9.642  0.00  0.00    +0.365 C 
ATOM     17  OE2 GLU A   1      -4.726  42.803  -9.315  0.00  0.00    -0.246 OA
ATOM     18  OE1 GLU A   1      -6.674  41.822  -9.640  0.00  0.00    -0.246 OA
ENDBRANCH  15  16
ENDBRANCH  14  15
ENDBRANCH  11  14
ENDBRANCH   7  11
ENDBRANCH   6   9
BRANCH   6  19
ATOM     19  CB  LEU A   2     -11.675  46.092 -14.338  0.00  0.00    +0.029 C 
BRANCH  19  20
ATOM     20  CG  LEU A   2     -12.774  45.789 -15.362  0.00  0.00    +0.002 C 
ATOM     21  CD2 LEU A   2     -14.052  45.343 -14.680  0.00  0.00    +0.000 C 
ATOM     22  CD1 LEU A   2     -13.027  47.030 -16.218  0.00  0.00    +0.000 C 
ENDBRANCH  19  20
ENDBRANCH   6  19
ENDBRANCH   2   6
ENDBRANCH   1   3
BRANCH   1  23
ATOM     23  C   TRP A   3     -12.302  41.241 -15.949  0.00  0.00    +0.241 C 
ATOM     24  O   TRP A   3     -13.402  41.364 -15.526  0.00  0.00    -0.273 OA
ATOM     25  N   VAL A   4     -12.062  40.951 -17.218  0.00  0.00    -0.297 N 
ATOM     26  H   VAL A   4     -11.079  40.861 -17.546  0.00  0.00    +0.150 HD
BRANCH  25  27
ATOM     27  CA  VAL A   4     -13.161  40.754 -18.169  0.00  0.00    +0.149 C 
BRANCH  27  28
ATOM     28  C   VAL A   4     -13.000  39.453 -18.946  0.00  0.00    +0.241 C 
ATOM     29  N   HIS A   5     -14.084  38.678 -19.000  0.00  0.00    -0.298 N 
ATOM     30  H   HIS A   5     -14.950  39.001 -18.523  0.00  0.00    +0.150 HD
ATOM     31  O   VAL A   4     -11.901  39.113 -19.385  0.00  0.00    -0.273 OA
BRANCH  29  32
ATOM     32  CA  HIS A   5     -14.109  37.399 -19.698  0.00  0.00    +0.143 C 
BRANCH  32  33
ATOM     33  C   HIS A   5     -13.804  37.567 -21.190  0.00  0.00    +0.227 C 
ATOM     34  O   HIS A   5     -14.217  38.547 -21.804  0.00  0.00    -0.286 OA
ENDBRANCH  32  33
BRANCH  32  35
ATOM     35  CB  HIS A   5     -15.484  36.746 -19.516  0.00  0.00    +0.075 C 
BRANCH  35  36
ATOM     36  CG  HIS A   5     -15.535  35.316 -19.942  0.00  0.00    +0.082 A 
ATOM     37  CD2 HIS A   5     -15.091  34.190 -19.337  0.00  0.00    +0.115 A 
ATOM     38  NE2 HIS A   5     -15.289  33.154 -20.217  0.00  0.00    -0.221 NA
ATOM     39  CE1 HIS A   5     -15.845  33.626 -21.317  0.00  0.00    +0.199 A 
ATOM     40  ND1 HIS A   5     -16.013  34.928 -21.174  0.00  0.00    -0.227 NA
ENDBRANCH  35  36
ENDBRANCH  32  35
ENDBRANCH  29  32
ENDBRANCH  27  28
BRANCH  27  41
ATOM     41  CB  VAL A   4     -13.325  41.950 -19.143  0.00  0.00    +0.027 C 
ATOM     42  CG2 VAL A   4     -13.349  43.260 -18.379  0.00  0.00    +0.002 C 
ATOM     43  CG1 VAL A   4     -14.609  41.798 -19.975  0.00  0.00    +0.002 C 
ENDBRANCH  27  41
ENDBRANCH  25  27
ENDBRANCH   1  23
BRANCH   1  44
ATOM     44  CB  TRP A   3     -10.832  40.272 -14.192  0.00  0.00    +0.057 C 
BRANCH  44  45
ATOM     45  CG  TRP A   3      -9.625  40.300 -13.388  0.00  0.00    -0.002 A 
ATOM     46  CD1 TRP A   3      -9.459  40.928 -12.238  0.00  0.00    +0.068 A 
ATOM     47  NE1 TRP A   3      -8.223  40.737 -11.761  0.00  0.00    -0.352 N 
ATOM     48  HE1 TRP A   3      -7.853  41.117 -10.866  0.00  0.00    +0.166 HD
ATOM     49  CE2 TRP A   3      -7.531  39.963 -12.641  0.00  0.00    +0.056 A 
ATOM     50  CZ2 TRP A   3      -6.250  39.473 -12.592  0.00  0.00    +0.017 A 
ATOM     51  CH2 TRP A   3      -5.840  38.697 -13.621  0.00  0.00    +0.001 A 
ATOM     52  CZ3 TRP A   3      -6.665  38.412 -14.663  0.00  0.00    +0.000 A 
ATOM     53  CE3 TRP A   3      -7.937  38.875 -14.715  0.00  0.00    +0.001 A 
ATOM     54  CD2 TRP A   3      -8.397  39.663 -13.676  0.00  0.00    +0.013 A 
ENDBRANCH  44  45
ENDBRANCH   1  44
TORSDOF 20
REMARK  Name = ../refined-set-2016/3brn/3brn_pocket.pdb
REMARK  211 active torsions:
REMARK  status: ('A' for Active; 'I' for Inactive)
REMARK    1  A    between atoms: _1  and  _3
REMARK    2  A    between atoms: _3  and  _4
REMARK    3  A    between atoms: _7  and  _9
REMARK    4  A    between atoms: _9  and  _10
REMARK    5  A    between atoms: _9  and  _12
REMARK    6  A    between atoms: _12  and  _13
REMARK    7  A    between atoms: _18  and  _19
REMARK    8  A    between atoms: _21  and  _23
REMARK    9  A    between atoms: _23  and  _24
REMARK   10  A    between atoms: _23  and  _26
REMARK   11  A    between atoms: _26  and  _27
REMARK   12  A    between atoms: _27  and  _28
REMARK   13  A    between atoms: _28  and  _29
REMARK   14  A    between atoms: _29  and  _30
REMARK   15  A    between atoms: _34  and  _36
REMARK   16  A    between atoms: _36  and  _37
REMARK   17  A    between atoms: _36  and  _39
REMARK   18  A    between atoms: _39  and  _40
REMARK   19  A    between atoms: _42  and  _44
REMARK   20  A    between atoms: _44  and  _45
REMARK   21  A    between atoms: _44  and  _47
REMARK   22  A    between atoms: _50  and  _52
REMARK   23  A    between atoms: _52  and  _53
REMARK   24  A    between atoms: _52  and  _55
REMARK   25  A    between atoms: _55  and  _56
REMARK   26  A    between atoms: _61  and  _63
REMARK   27  A    between atoms: _63  and  _64
REMARK   28  A    between atoms: _67  and  _68
REMARK   29  A    between atoms: _73  and  _75
REMARK   30  A    between atoms: _75  and  _76
REMARK   31  A    between atoms: _78  and  _80
REMARK   32  A    between atoms: _80  and  _81
REMARK   33  A    between atoms: _80  and  _83
REMARK   34  A    between atoms: _83  and  _84
REMARK   35  A    between atoms: _89  and  _90
REMARK   36  A    between atoms: _92  and  _94
REMARK   37  A    between atoms: _94  and  _95
REMARK   38  A    between atoms: _94  and  _97
REMARK   39  A    between atoms: _97  and  _98
REMARK   40  A    between atoms: _103  and  _104
REMARK   41  A    between atoms: _106  and  _108
REMARK   42  A    between atoms: _108  and  _109
REMARK   43  A    between atoms: _108  and  _111
REMARK   44  A    between atoms: _111  and  _112
REMARK   45  A    between atoms: _115  and  _117
REMARK   46  A    between atoms: _117  and  _118
REMARK   47  A    between atoms: _117  and  _120
REMARK   48  A    between atoms: _120  and  _121
REMARK   49  A    between atoms: _126  and  _127
REMARK   50  A    between atoms: _129  and  _131
REMARK   51  A    between atoms: _131  and  _132
REMARK   52  A    between atoms: _131  and  _134
REMARK   53  A    between atoms: _137  and  _139
REMARK   54  A    between atoms: _139  and  _140
REMARK   55  A    between atoms: _139  and  _142
REMARK   56  A    between atoms: _142  and  _143
REMARK   57  A    between atoms: _146  and  _148
REMARK   58  A    between atoms: _148  and  _149
REMARK   59  A    between atoms: _148  and  _151
REMARK   60  A    between atoms: _155  and  _156
REMARK   61  A    between atoms: _161  and  _163
REMARK   62  A    between atoms: _163  and  _164
REMARK   63  A    between atoms: _163  and  _166
REMARK   64  A    between atoms: _166  and  _167
REMARK   65  A    between atoms: _170  and  _172
REMARK   66  A    between atoms: _172  and  _173
REMARK   67  A    between atoms: _172  and  _175
REMARK   68  A    between atoms: _175  and  _176
REMARK   69  A    between atoms: _179  and  _181
REMARK   70  A    between atoms: _181  and  _182
REMARK   71  A    between atoms: _181  and  _184
REMARK   72  A    between atoms: _184  and  _185
REMARK   73  A    between atoms: _187  and  _189
REMARK   74  A    between atoms: _189  and  _190
REMARK   75  A    between atoms: _189  and  _192
REMARK   76  A    between atoms: _192  and  _193
REMARK   77  A    between atoms: _199  and  _201
REMARK   78  A    between atoms: _201  and  _202
REMARK   79  A    between atoms: _201  and  _204
REMARK   80  A    between atoms: _204  and  _205
REMARK   81  A    between atoms: _208  and  _210
REMARK   82  A    between atoms: _210  and  _211
REMARK   83  A    between atoms: _210  and  _213
REMARK   84  A    between atoms: _213  and  _214
REMARK   85  A    between atoms: _219  and  _220
REMARK   86  A    between atoms: _222  and  _224
REMARK   87  A    between atoms: _224  and  _225
REMARK   88  A    between atoms: _228  and  _230
REMARK   89  A    between atoms: _230  and  _231
REMARK   90  A    between atoms: _230  and  _233
REMARK   91  A    between atoms: _233  and  _234
REMARK   92  A    between atoms: _237  and  _239
REMARK   93  A    between atoms: _239  and  _240
REMARK   94  A    between atoms: _239  and  _242
REMARK   95  A    between atoms: _245  and  _247
REMARK   96  A    between atoms: _247  and  _248
REMARK   97  A    between atoms: _247  and  _250
REMARK   98  A    between atoms: _250  and  _251
REMARK   99  A    between atoms: _254  and  _256
REMARK  100  A    between atoms: _256  and  _257
REMARK  101  A    between atoms: _256  and  _259
REMARK  102  A    between atoms: _262  and  _264
REMARK  103  A    between atoms: _264  and  _265
REMARK  104  A    between atoms: _264  and  _267
REMARK  105  A    between atoms: _267  and  _268
REMARK  106  A    between atoms: _271  and  _273
REMARK  107  A    between atoms: _273  and  _274
REMARK  108  A    between atoms: _273  and  _276
REMARK  109  A    between atoms: _276  and  _277
REMARK  110  A    between atoms: _277  and  _278
REMARK  111  A    between atoms: _281  and  _283
REMARK  112  A    between atoms: _283  and  _284
REMARK  113  A    between atoms: _283  and  _286
REMARK  114  A    between atoms: _289  and  _291
REMARK  115  A    between atoms: _291  and  _292
REMARK  116  A    between atoms: _291  and  _294
REMARK  117  A    between atoms: _294  and  _295
REMARK  118  A    between atoms: _298  and  _300
REMARK  119  A    between atoms: _300  and  _301
REMARK  120  A    between atoms: _304  and  _306
REMARK  121  A    between atoms: _306  and  _307
REMARK  122  A    between atoms: _306  and  _309
REMARK  123  A    between atoms: _309  and  _310
REMARK  124  A    between atoms: _313  and  _315
REMARK  125  A    between atoms: _315  and  _316
REMARK  126  A    between atoms: _315  and  _318
REMARK  127  A    between atoms: _318  and  _319
REMARK  128  A    between atoms: _321  and  _323
REMARK  129  A    between atoms: _323  and  _324
REMARK  130  A    between atoms: _326  and  _328
REMARK  131  A    between atoms: _328  and  _329
REMARK  132  A    between atoms: _328  and  _331
REMARK  133  A    between atoms: _331  and  _332
REMARK  134  A    between atoms: _335  and  _337
REMARK  135  A    between atoms: _337  and  _338
REMARK  136  A    between atoms: _337  and  _340
REMARK  137  A    between atoms: _340  and  _341
REMARK  138  A    between atoms: _344  and  _346
REMARK  139  A    between atoms: _346  and  _347
REMARK  140  A    between atoms: _346  and  _349
REMARK  141  A    between atoms: _349  and  _350
REMARK  142  A    between atoms: _353  and  _355
REMARK  143  A    between atoms: _355  and  _356
REMARK  144  A    between atoms: _355  and  _358
REMARK  145  A    between atoms: _361  and  _363
REMARK  146  A    between atoms: _363  and  _364
REMARK  147  A    between atoms: _363  and  _366
REMARK  148  A    between atoms: _366  and  _367
REMARK  149  A    between atoms: _369  and  _371
REMARK  150  A    between atoms: _371  and  _372
REMARK  151  A    between atoms: _371  and  _374
REMARK  152  A    between atoms: _374  and  _375
REMARK  153  A    between atoms: _378  and  _380
REMARK  154  A    between atoms: _380  and  _381
REMARK  155  A    between atoms: _380  and  _383
REMARK  156  A    between atoms: _383  and  _384
REMARK  157  A    between atoms: _389  and  _390
REMARK  158  A    between atoms: _392  and  _394
REMARK  159  A    between atoms: _394  and  _395
REMARK  160  A    between atoms: _394  and  _397
REMARK  161  A    between atoms: _397  and  _398
REMARK  162  A    between atoms: _398  and  _399
REMARK  163  A    between atoms: _399  and  _400
REMARK  164  A    between atoms: _409  and  _411
REMARK  165  A    between atoms: _411  and  _412
REMARK  166  A    between atoms: _411  and  _414
REMARK  167  A    between atoms: _414  and  _415
REMARK  168  A    between atoms: _417  and  _419
REMARK  169  A    between atoms: _419  and  _420
REMARK  170  A    between atoms: _419  and  _422
REMARK  171  A    between atoms: _424  and  _426
REMARK  172  A    between atoms: _426  and  _427
REMARK  173  A    between atoms: _426  and  _429
REMARK  174  A    between atoms: _429  and  _430
REMARK  175  A    between atoms: _433  and  _435
REMARK  176  A    between atoms: _435  and  _436
REMARK  177  A    between atoms: _435  and  _438
REMARK  178  A    between atoms: _441  and  _443
REMARK  179  A    between atoms: _443  and  _444
REMARK  180  A    between atoms: _443  and  _446
REMARK  181  A    between atoms: _446  and  _447
REMARK  182  A    between atoms: _447  and  _448
REMARK  183  A    between atoms: _450  and  _452
REMARK  184  A    between atoms: _452  and  _453
REMARK  185  A    between atoms: _452  and  _455
REMARK  186  A    between atoms: _455  and  _456
REMARK  187  A    between atoms: _456  and  _457
REMARK  188  A    between atoms: _457  and  _458
REMARK  189  A    between atoms: _467  and  _469
REMARK  190  A    between atoms: _469  and  _470
REMARK  191  A    between atoms: _473  and  _474
REMARK  192  A    between atoms: _479  and  _481
REMARK  193  A    between atoms: _481  and  _482
REMARK  194  A    between atoms: _481  and  _484
REMARK  195  A    between atoms: _484  and  _485
REMARK  196  A    between atoms: _485  and  _486
REMARK  197  A    between atoms: _489  and  _491
REMARK  198  A    between atoms: _491  and  _492
REMARK  199  A    between atoms: _491  and  _494
REMARK  200  A    between atoms: _494  and  _495
REMARK  201  A    between atoms: _498  and  _500
REMARK  202  A    between atoms: _500  and  _501
REMARK  203  A    between atoms: _500  and  _503
REMARK  204  A    between atoms: _503  and  _504
REMARK  205  A    between atoms: _514  and  _516
REMARK  206  A    between atoms: _516  and  _517
REMARK  207  A    between atoms: _516  and  _519
REMARK  208  A    between atoms: _522  and  _524
REMARK  209  A    between atoms: _524  and  _525
REMARK  210  A    between atoms: _524  and  _527
REMARK  211  A    between atoms: _527  and  _528
REMARK                            x       y       z     vdW  Elec       q    Type
REMARK                         _______ _______ _______ _____ _____    ______ ____
ROOT
ATOM      1  O   HOH     1      -9.375  31.097 -13.060  0.00  0.00    +0.000 OA
ENDROOT
TORSDOF 0
REMARK  Name = ../refined-set-2016/3brn/3brn_pocket.pdb
REMARK  211 active torsions:
REMARK  status: ('A' for Active; 'I' for Inactive)
REMARK    1  A    between atoms: _1  and  _3
REMARK    2  A    between atoms: _3  and  _4
REMARK    3  A    between atoms: _7  and  _9
REMARK    4  A    between atoms: _9  and  _10
REMARK    5  A    between atoms: _9  and  _12
REMARK    6  A    between atoms: _12  and  _13
REMARK    7  A    between atoms: _18  and  _19
REMARK    8  A    between atoms: _21  and  _23
REMARK    9  A    between atoms: _23  and  _24
REMARK   10  A    between atoms: _23  and  _26
REMARK   11  A    between atoms: _26  and  _27
REMARK   12  A    between atoms: _27  and  _28
REMARK   13  A    between atoms: _28  and  _29
REMARK   14  A    between atoms: _29  and  _30
REMARK   15  A    between atoms: _34  and  _36
REMARK   16  A    between atoms: _36  and  _37
REMARK   17  A    between atoms: _36  and  _39
REMARK   18  A    between atoms: _39  and  _40
REMARK   19  A    between atoms: _42  and  _44
REMARK   20  A    between atoms: _44  and  _45
REMARK   21  A    between atoms: _44  and  _47
REMARK   22  A    between atoms: _50  and  _52
REMARK   23  A    between atoms: _52  and  _53
REMARK   24  A    between atoms: _52  and  _55
REMARK   25  A    between atoms: _55  and  _56
REMARK   26  A    between atoms: _61  and  _63
REMARK   27  A    between atoms: _63  and  _64
REMARK   28  A    between atoms: _67  and  _68
REMARK   29  A    between atoms: _73  and  _75
REMARK   30  A    between atoms: _75  and  _76
REMARK   31  A    between atoms: _78  and  _80
REMARK   32  A    between atoms: _80  and  _81
REMARK   33  A    between atoms: _80  and  _83
REMARK   34  A    between atoms: _83  and  _84
REMARK   35  A    between atoms: _89  and  _90
REMARK   36  A    between atoms: _92  and  _94
REMARK   37  A    between atoms: _94  and  _95
REMARK   38  A    between atoms: _94  and  _97
REMARK   39  A    between atoms: _97  and  _98
REMARK   40  A    between atoms: _103  and  _104
REMARK   41  A    between atoms: _106  and  _108
REMARK   42  A    between atoms: _108  and  _109
REMARK   43  A    between atoms: _108  and  _111
REMARK   44  A    between atoms: _111  and  _112
REMARK   45  A    between atoms: _115  and  _117
REMARK   46  A    between atoms: _117  and  _118
REMARK   47  A    between atoms: _117  and  _120
REMARK   48  A    between atoms: _120  and  _121
REMARK   49  A    between atoms: _126  and  _127
REMARK   50  A    between atoms: _129  and  _131
REMARK   51  A    between atoms: _131  and  _132
REMARK   52  A    between atoms: _131  and  _134
REMARK   53  A    between atoms: _137  and  _139
REMARK   54  A    between atoms: _139  and  _140
REMARK   55  A    between atoms: _139  and  _142
REMARK   56  A    between atoms: _142  and  _143
REMARK   57  A    between atoms: _146  and  _148
REMARK   58  A    between atoms: _148  and  _149
REMARK   59  A    between atoms: _148  and  _151
REMARK   60  A    between atoms: _155  and  _156
REMARK   61  A    between atoms: _161  and  _163
REMARK   62  A    between atoms: _163  and  _164
REMARK   63  A    between atoms: _163  and  _166
REMARK   64  A    between atoms: _166  and  _167
REMARK   65  A    between atoms: _170  and  _172
REMARK   66  A    between atoms: _172  and  _173
REMARK   67  A    between atoms: _172  and  _175
REMARK   68  A    between atoms: _175  and  _176
REMARK   69  A    between atoms: _179  and  _181
REMARK   70  A    between atoms: _181  and  _182
REMARK   71  A    between atoms: _181  and  _184
REMARK   72  A    between atoms: _184  and  _185
REMARK   73  A    between atoms: _187  and  _189
REMARK   74  A    between atoms: _189  and  _190
REMARK   75  A    between atoms: _189  and  _192
REMARK   76  A    between atoms: _192  and  _193
REMARK   77  A    between atoms: _199  and  _201
REMARK   78  A    between atoms: _201  and  _202
REMARK   79  A    between atoms: _201  and  _204
REMARK   80  A    between atoms: _204  and  _205
REMARK   81  A    between atoms: _208  and  _210
REMARK   82  A    between atoms: _210  and  _211
REMARK   83  A    between atoms: _210  and  _213
REMARK   84  A    between atoms: _213  and  _214
REMARK   85  A    between atoms: _219  and  _220
REMARK   86  A    between atoms: _222  and  _224
REMARK   87  A    between atoms: _224  and  _225
REMARK   88  A    between atoms: _228  and  _230
REMARK   89  A    between atoms: _230  and  _231
REMARK   90  A    between atoms: _230  and  _233
REMARK   91  A    between atoms: _233  and  _234
REMARK   92  A    between atoms: _237  and  _239
REMARK   93  A    between atoms: _239  and  _240
REMARK   94  A    between atoms: _239  and  _242
REMARK   95  A    between atoms: _245  and  _247
REMARK   96  A    between atoms: _247  and  _248
REMARK   97  A    between atoms: _247  and  _250
REMARK   98  A    between atoms: _250  and  _251
REMARK   99  A    between atoms: _254  and  _256
REMARK  100  A    between atoms: _256  and  _257
REMARK  101  A    between atoms: _256  and  _259
REMARK  102  A    between atoms: _262  and  _264
REMARK  103  A    between atoms: _264  and  _265
REMARK  104  A    between atoms: _264  and  _267
REMARK  105  A    between atoms: _267  and  _268
REMARK  106  A    between atoms: _271  and  _273
REMARK  107  A    between atoms: _273  and  _274
REMARK  108  A    between atoms: _273  and  _276
REMARK  109  A    between atoms: _276  and  _277
REMARK  110  A    between atoms: _277  and  _278
REMARK  111  A    between atoms: _281  and  _283
REMARK  112  A    between atoms: _283  and  _284
REMARK  113  A    between atoms: _283  and  _286
REMARK  114  A    between atoms: _289  and  _291
REMARK  115  A    between atoms: _291  and  _292
REMARK  116  A    between atoms: _291  and  _294
REMARK  117  A    between atoms: _294  and  _295
REMARK  118  A    between atoms: _298  and  _300
REMARK  119  A    between atoms: _300  and  _301
REMARK  120  A    between atoms: _304  and  _306
REMARK  121  A    between atoms: _306  and  _307
REMARK  122  A    between atoms: _306  and  _309
REMARK  123  A    between atoms: _309  and  _310
REMARK  124  A    between atoms: _313  and  _315
REMARK  125  A    between atoms: _315  and  _316
REMARK  126  A    between atoms: _315  and  _318
REMARK  127  A    between atoms: _318  and  _319
REMARK  128  A    between atoms: _321  and  _323
REMARK  129  A    between atoms: _323  and  _324
REMARK  130  A    between atoms: _326  and  _328
REMARK  131  A    between atoms: _328  and  _329
REMARK  132  A    between atoms: _328  and  _331
REMARK  133  A    between atoms: _331  and  _332
REMARK  134  A    between atoms: _335  and  _337
REMARK  135  A    between atoms: _337  and  _338
REMARK  136  A    between atoms: _337  and  _340
REMARK  137  A    between atoms: _340  and  _341
REMARK  138  A    between atoms: _344  and  _346
REMARK  139  A    between atoms: _346  and  _347
REMARK  140  A    between atoms: _346  and  _349
REMARK  141  A    between atoms: _349  and  _350
REMARK  142  A    between atoms: _353  and  _355
REMARK  143  A    between atoms: _355  and  _356
REMARK  144  A    between atoms: _355  and  _358
REMARK  145  A    between atoms: _361  and  _363
REMARK  146  A    between atoms: _363  and  _364
REMARK  147  A    between atoms: _363  and  _366
REMARK  148  A    between atoms: _366  and  _367
REMARK  149  A    between atoms: _369  and  _371
REMARK  150  A    between atoms: _371  and  _372
REMARK  151  A    between atoms: _371  and  _374
REMARK  152  A    between atoms: _374  and  _375
REMARK  153  A    between atoms: _378  and  _380
REMARK  154  A    between atoms: _380  and  _381
REMARK  155  A    between atoms: _380  and  _383
REMARK  156  A    between atoms: _383  and  _384
REMARK  157  A    between atoms: _389  and  _390
REMARK  158  A    between atoms: _392  and  _394
REMARK  159  A    between atoms: _394  and  _395
REMARK  160  A    between atoms: _394  and  _397
REMARK  161  A    between atoms: _397  and  _398
REMARK  162  A    between atoms: _398  and  _399
REMARK  163  A    between atoms: _399  and  _400
REMARK  164  A    between atoms: _409  and  _411
REMARK  165  A    between atoms: _411  and  _412
REMARK  166  A    between atoms: _411  and  _414
REMARK  167  A    between atoms: _414  and  _415
REMARK  168  A    between atoms: _417  and  _419
REMARK  169  A    between atoms: _419  and  _420
REMARK  170  A    between atoms: _419  and  _422
REMARK  171  A    between atoms: _424  and  _426
REMARK  172  A    between atoms: _426  and  _427
REMARK  173  A    between atoms: _426  and  _429
REMARK  174  A    between atoms: _429  and  _430
REMARK  175  A    between atoms: _433  and  _435
REMARK  176  A    between atoms: _435  and  _436
REMARK  177  A    between atoms: _435  and  _438
REMARK  178  A    between atoms: _441  and  _443
REMARK  179  A    between atoms: _443  and  _444
REMARK  180  A    between atoms: _443  and  _446
REMARK  181  A    between atoms: _446  and  _447
REMARK  182  A    between atoms: _447  and  _448
REMARK  183  A    between atoms: _450  and  _452
REMARK  184  A    between atoms: _452  and  _453
REMARK  185  A    between atoms: _452  and  _455
REMARK  186  A    between atoms: _455  and  _456
REMARK  187  A    between atoms: _456  and  _457
REMARK  188  A    between atoms: _457  and  _458
REMARK  189  A    between atoms: _467  and  _469
REMARK  190  A    between atoms: _469  and  _470
REMARK  191  A    between atoms: _473  and  _474
REMARK  192  A    between atoms: _479  and  _481
REMARK  193  A    between atoms: _481  and  _482
REMARK  194  A    between atoms: _481  and  _484
REMARK  195  A    between atoms: _484  and  _485
REMARK  196  A    between atoms: _485  and  _486
REMARK  197  A    between atoms: _489  and  _491
REMARK  198  A    between atoms: _491  and  _492
REMARK  199  A    between atoms: _491  and  _494
REMARK  200  A    between atoms: _494  and  _495
REMARK  201  A    between atoms: _498  and  _500
REMARK  202  A    between atoms: _500  and  _501
REMARK  203  A    between atoms: _500  and  _503
REMARK  204  A    between atoms: _503  and  _504
REMARK  205  A    between atoms: _514  and  _516
REMARK  206  A    between atoms: _516  and  _517
REMARK  207  A    between atoms: _516  and  _519
REMARK  208  A    between atoms: _522  and  _524
REMARK  209  A    between atoms: _524  and  _525
REMARK  210  A    between atoms: _524  and  _527
REMARK  211  A    between atoms: _527  and  _528
REMARK                            x       y       z     vdW  Elec       q    Type
REMARK                         _______ _______ _______ _____ _____    ______ ____
ROOT
ATOM      1  O   HOH     1      -3.410  40.695  -9.261  0.00  0.00    +0.000 OA
ENDROOT
TORSDOF 0
REMARK  Name = ../refined-set-2016/3brn/3brn_pocket.pdb
REMARK  211 active torsions:
REMARK  status: ('A' for Active; 'I' for Inactive)
REMARK    1  A    between atoms: _1  and  _3
REMARK    2  A    between atoms: _3  and  _4
REMARK    3  A    between atoms: _7  and  _9
REMARK    4  A    between atoms: _9  and  _10
REMARK    5  A    between atoms: _9  and  _12
REMARK    6  A    between atoms: _12  and  _13
REMARK    7  A    between atoms: _18  and  _19
REMARK    8  A    between atoms: _21  and  _23
REMARK    9  A    between atoms: _23  and  _24
REMARK   10  A    between atoms: _23  and  _26
REMARK   11  A    between atoms: _26  and  _27
REMARK   12  A    between atoms: _27  and  _28
REMARK   13  A    between atoms: _28  and  _29
REMARK   14  A    between atoms: _29  and  _30
REMARK   15  A    between atoms: _34  and  _36
REMARK   16  A    between atoms: _36  and  _37
REMARK   17  A    between atoms: _36  and  _39
REMARK   18  A    between atoms: _39  and  _40
REMARK   19  A    between atoms: _42  and  _44
REMARK   20  A    between atoms: _44  and  _45
REMARK   21  A    between atoms: _44  and  _47
REMARK   22  A    between atoms: _50  and  _52
REMARK   23  A    between atoms: _52  and  _53
REMARK   24  A    between atoms: _52  and  _55
REMARK   25  A    between atoms: _55  and  _56
REMARK   26  A    between atoms: _61  and  _63
REMARK   27  A    between atoms: _63  and  _64
REMARK   28  A    between atoms: _67  and  _68
REMARK   29  A    between atoms: _73  and  _75
REMARK   30  A    between atoms: _75  and  _76
REMARK   31  A    between atoms: _78  and  _80
REMARK   32  A    between atoms: _80  and  _81
REMARK   33  A    between atoms: _80  and  _83
REMARK   34  A    between atoms: _83  and  _84
REMARK   35  A    between atoms: _89  and  _90
REMARK   36  A    between atoms: _92  and  _94
REMARK   37  A    between atoms: _94  and  _95
REMARK   38  A    between atoms: _94  and  _97
REMARK   39  A    between atoms: _97  and  _98
REMARK   40  A    between atoms: _103  and  _104
REMARK   41  A    between atoms: _106  and  _108
REMARK   42  A    between atoms: _108  and  _109
REMARK   43  A    between atoms: _108  and  _111
REMARK   44  A    between atoms: _111  and  _112
REMARK   45  A    between atoms: _115  and  _117
REMARK   46  A    between atoms: _117  and  _118
REMARK   47  A    between atoms: _117  and  _120
REMARK   48  A    between atoms: _120  and  _121
REMARK   49  A    between atoms: _126  and  _127
REMARK   50  A    between atoms: _129  and  _131
REMARK   51  A    between atoms: _131  and  _132
REMARK   52  A    between atoms: _131  and  _134
REMARK   53  A    between atoms: _137  and  _139
REMARK   54  A    between atoms: _139  and  _140
REMARK   55  A    between atoms: _139  and  _142
REMARK   56  A    between atoms: _142  and  _143
REMARK   57  A    between atoms: _146  and  _148
REMARK   58  A    between atoms: _148  and  _149
REMARK   59  A    between atoms: _148  and  _151
REMARK   60  A    between atoms: _155  and  _156
REMARK   61  A    between atoms: _161  and  _163
REMARK   62  A    between atoms: _163  and  _164
REMARK   63  A    between atoms: _163  and  _166
REMARK   64  A    between atoms: _166  and  _167
REMARK   65  A    between atoms: _170  and  _172
REMARK   66  A    between atoms: _172  and  _173
REMARK   67  A    between atoms: _172  and  _175
REMARK   68  A    between atoms: _175  and  _176
REMARK   69  A    between atoms: _179  and  _181
REMARK   70  A    between atoms: _181  and  _182
REMARK   71  A    between atoms: _181  and  _184
REMARK   72  A    between atoms: _184  and  _185
REMARK   73  A    between atoms: _187  and  _189
REMARK   74  A    between atoms: _189  and  _190
REMARK   75  A    between atoms: _189  and  _192
REMARK   76  A    between atoms: _192  and  _193
REMARK   77  A    between atoms: _199  and  _201
REMARK   78  A    between atoms: _201  and  _202
REMARK   79  A    between atoms: _201  and  _204
REMARK   80  A    between atoms: _204  and  _205
REMARK   81  A    between atoms: _208  and  _210
REMARK   82  A    between atoms: _210  and  _211
REMARK   83  A    between atoms: _210  and  _213
REMARK   84  A    between atoms: _213  and  _214
REMARK   85  A    between atoms: _219  and  _220
REMARK   86  A    between atoms: _222  and  _224
REMARK   87  A    between atoms: _224  and  _225
REMARK   88  A    between atoms: _228  and  _230
REMARK   89  A    between atoms: _230  and  _231
REMARK   90  A    between atoms: _230  and  _233
REMARK   91  A    between atoms: _233  and  _234
REMARK   92  A    between atoms: _237  and  _239
REMARK   93  A    between atoms: _239  and  _240
REMARK   94  A    between atoms: _239  and  _242
REMARK   95  A    between atoms: _245  and  _247
REMARK   96  A    between atoms: _247  and  _248
REMARK   97  A    between atoms: _247  and  _250
REMARK   98  A    between atoms: _250  and  _251
REMARK   99  A    between atoms: _254  and  _256
REMARK  100  A    between atoms: _256  and  _257
REMARK  101  A    between atoms: _256  and  _259
REMARK  102  A    between atoms: _262  and  _264
REMARK  103  A    between atoms: _264  and  _265
REMARK  104  A    between atoms: _264  and  _267
REMARK  105  A    between atoms: _267  and  _268
REMARK  106  A    between atoms: _271  and  _273
REMARK  107  A    between atoms: _273  and  _274
REMARK  108  A    between atoms: _273  and  _276
REMARK  109  A    between atoms: _276  and  _277
REMARK  110  A    between atoms: _277  and  _278
REMARK  111  A    between atoms: _281  and  _283
REMARK  112  A    between atoms: _283  and  _284
REMARK  113  A    between atoms: _283  and  _286
REMARK  114  A    between atoms: _289  and  _291
REMARK  115  A    between atoms: _291  and  _292
REMARK  116  A    between atoms: _291  and  _294
REMARK  117  A    between atoms: _294  and  _295
REMARK  118  A    between atoms: _298  and  _300
REMARK  119  A    between atoms: _300  and  _301
REMARK  120  A    between atoms: _304  and  _306
REMARK  121  A    between atoms: _306  and  _307
REMARK  122  A    between atoms: _306  and  _309
REMARK  123  A    between atoms: _309  and  _310
REMARK  124  A    between atoms: _313  and  _315
REMARK  125  A    between atoms: _315  and  _316
REMARK  126  A    between atoms: _315  and  _318
REMARK  127  A    between atoms: _318  and  _319
REMARK  128  A    between atoms: _321  and  _323
REMARK  129  A    between atoms: _323  and  _324
REMARK  130  A    between atoms: _326  and  _328
REMARK  131  A    between atoms: _328  and  _329
REMARK  132  A    between atoms: _328  and  _331
REMARK  133  A    between atoms: _331  and  _332
REMARK  134  A    between atoms: _335  and  _337
REMARK  135  A    between atoms: _337  and  _338
REMARK  136  A    between atoms: _337  and  _340
REMARK  137  A    between atoms: _340  and  _341
REMARK  138  A    between atoms: _344  and  _346
REMARK  139  A    between atoms: _346  and  _347
REMARK  140  A    between atoms: _346  and  _349
REMARK  141  A    between atoms: _349  and  _350
REMARK  142  A    between atoms: _353  and  _355
REMARK  143  A    between atoms: _355  and  _356
REMARK  144  A    between atoms: _355  and  _358
REMARK  145  A    between atoms: _361  and  _363
REMARK  146  A    between atoms: _363  and  _364
REMARK  147  A    between atoms: _363  and  _366
REMARK  148  A    between atoms: _366  and  _367
REMARK  149  A    between atoms: _369  and  _371
REMARK  150  A    between atoms: _371  and  _372
REMARK  151  A    between atoms: _371  and  _374
REMARK  152  A    between atoms: _374  and  _375
REMARK  153  A    between atoms: _378  and  _380
REMARK  154  A    between atoms: _380  and  _381
REMARK  155  A    between atoms: _380  and  _383
REMARK  156  A    between atoms: _383  and  _384
REMARK  157  A    between atoms: _389  and  _390
REMARK  158  A    between atoms: _392  and  _394
REMARK  159  A    between atoms: _394  and  _395
REMARK  160  A    between atoms: _394  and  _397
REMARK  161  A    between atoms: _397  and  _398
REMARK  162  A    between atoms: _398  and  _399
REMARK  163  A    between atoms: _399  and  _400
REMARK  164  A    between atoms: _409  and  _411
REMARK  165  A    between atoms: _411  and  _412
REMARK  166  A    between atoms: _411  and  _414
REMARK  167  A    between atoms: _414  and  _415
REMARK  168  A    between atoms: _417  and  _419
REMARK  169  A    between atoms: _419  and  _420
REMARK  170  A    between atoms: _419  and  _422
REMARK  171  A    between atoms: _424  and  _426
REMARK  172  A    between atoms: _426  and  _427
REMARK  173  A    between atoms: _426  and  _429
REMARK  174  A    between atoms: _429  and  _430
REMARK  175  A    between atoms: _433  and  _435
REMARK  176  A    between atoms: _435  and  _436
REMARK  177  A    between atoms: _435  and  _438
REMARK  178  A    between atoms: _441  and  _443
REMARK  179  A    between atoms: _443  and  _444
REMARK  180  A    between atoms: _443  and  _446
REMARK  181  A    between atoms: _446  and  _447
REMARK  182  A    between atoms: _447  and  _448
REMARK  183  A    between atoms: _450  and  _452
REMARK  184  A    between atoms: _452  and  _453
REMARK  185  A    between atoms: _452  and  _455
REMARK  186  A    between atoms: _455  and  _456
REMARK  187  A    between atoms: _456  and  _457
REMARK  188  A    between atoms: _457  and  _458
REMARK  189  A    between atoms: _467  and  _469
REMARK  190  A    between atoms: _469  and  _470
REMARK  191  A    between atoms: _473  and  _474
REMARK  192  A    between atoms: _479  and  _481
REMARK  193  A    between atoms: _481  and  _482
REMARK  194  A    between atoms: _481  and  _484
REMARK  195  A    between atoms: _484  and  _485
REMARK  196  A    between atoms: _485  and  _486
REMARK  197  A    between atoms: _489  and  _491
REMARK  198  A    between atoms: _491  and  _492
REMARK  199  A    between atoms: _491  and  _494
REMARK  200  A    between atoms: _494  and  _495
REMARK  201  A    between atoms: _498  and  _500
REMARK  202  A    between atoms: _500  and  _501
REMARK  203  A    between atoms: _500  and  _503
REMARK  204  A    between atoms: _503  and  _504
REMARK  205  A    between atoms: _514  and  _516
REMARK  206  A    between atoms: _516  and  _517
REMARK  207  A    between atoms: _516  and  _519
REMARK  208  A    between atoms: _522  and  _524
REMARK  209  A    between atoms: _524  and  _525
REMARK  210  A    between atoms: _524  and  _527
REMARK  211  A    between atoms: _527  and  _528
REMARK                            x       y       z     vdW  Elec       q    Type
REMARK                         _______ _______ _______ _____ _____    ______ ____
ROOT
ATOM      1  O   HOH     1      -6.037  39.180  -8.714  0.00  0.00    +0.000 OA
ENDROOT
TORSDOF 0
REMARK  Name = ../refined-set-2016/3brn/3brn_pocket.pdb
REMARK  211 active torsions:
REMARK  status: ('A' for Active; 'I' for Inactive)
REMARK    1  A    between atoms: _1  and  _3
REMARK    2  A    between atoms: _3  and  _4
REMARK    3  A    between atoms: _7  and  _9
REMARK    4  A    between atoms: _9  and  _10
REMARK    5  A    between atoms: _9  and  _12
REMARK    6  A    between atoms: _12  and  _13
REMARK    7  A    between atoms: _18  and  _19
REMARK    8  A    between atoms: _21  and  _23
REMARK    9  A    between atoms: _23  and  _24
REMARK   10  A    between atoms: _23  and  _26
REMARK   11  A    between atoms: _26  and  _27
REMARK   12  A    between atoms: _27  and  _28
REMARK   13  A    between atoms: _28  and  _29
REMARK   14  A    between atoms: _29  and  _30
REMARK   15  A    between atoms: _34  and  _36
REMARK   16  A    between atoms: _36  and  _37
REMARK   17  A    between atoms: _36  and  _39
REMARK   18  A    between atoms: _39  and  _40
REMARK   19  A    between atoms: _42  and  _44
REMARK   20  A    between atoms: _44  and  _45
REMARK   21  A    between atoms: _44  and  _47
REMARK   22  A    between atoms: _50  and  _52
REMARK   23  A    between atoms: _52  and  _53
REMARK   24  A    between atoms: _52  and  _55
REMARK   25  A    between atoms: _55  and  _56
REMARK   26  A    between atoms: _61  and  _63
REMARK   27  A    between atoms: _63  and  _64
REMARK   28  A    between atoms: _67  and  _68
REMARK   29  A    between atoms: _73  and  _75
REMARK   30  A    between atoms: _75  and  _76
REMARK   31  A    between atoms: _78  and  _80
REMARK   32  A    between atoms: _80  and  _81
REMARK   33  A    between atoms: _80  and  _83
REMARK   34  A    between atoms: _83  and  _84
REMARK   35  A    between atoms: _89  and  _90
REMARK   36  A    between atoms: _92  and  _94
REMARK   37  A    between atoms: _94  and  _95
REMARK   38  A    between atoms: _94  and  _97
REMARK   39  A    between atoms: _97  and  _98
REMARK   40  A    between atoms: _103  and  _104
REMARK   41  A    between atoms: _106  and  _108
REMARK   42  A    between atoms: _108  and  _109
REMARK   43  A    between atoms: _108  and  _111
REMARK   44  A    between atoms: _111  and  _112
REMARK   45  A    between atoms: _115  and  _117
REMARK   46  A    between atoms: _117  and  _118
REMARK   47  A    between atoms: _117  and  _120
REMARK   48  A    between atoms: _120  and  _121
REMARK   49  A    between atoms: _126  and  _127
REMARK   50  A    between atoms: _129  and  _131
REMARK   51  A    between atoms: _131  and  _132
REMARK   52  A    between atoms: _131  and  _134
REMARK   53  A    between atoms: _137  and  _139
REMARK   54  A    between atoms: _139  and  _140
REMARK   55  A    between atoms: _139  and  _142
REMARK   56  A    between atoms: _142  and  _143
REMARK   57  A    between atoms: _146  and  _148
REMARK   58  A    between atoms: _148  and  _149
REMARK   59  A    between atoms: _148  and  _151
REMARK   60  A    between atoms: _155  and  _156
REMARK   61  A    between atoms: _161  and  _163
REMARK   62  A    between atoms: _163  and  _164
REMARK   63  A    between atoms: _163  and  _166
REMARK   64  A    between atoms: _166  and  _167
REMARK   65  A    between atoms: _170  and  _172
REMARK   66  A    between atoms: _172  and  _173
REMARK   67  A    between atoms: _172  and  _175
REMARK   68  A    between atoms: _175  and  _176
REMARK   69  A    between atoms: _179  and  _181
REMARK   70  A    between atoms: _181  and  _182
REMARK   71  A    between atoms: _181  and  _184
REMARK   72  A    between atoms: _184  and  _185
REMARK   73  A    between atoms: _187  and  _189
REMARK   74  A    between atoms: _189  and  _190
REMARK   75  A    between atoms: _189  and  _192
REMARK   76  A    between atoms: _192  and  _193
REMARK   77  A    between atoms: _199  and  _201
REMARK   78  A    between atoms: _201  and  _202
REMARK   79  A    between atoms: _201  and  _204
REMARK   80  A    between atoms: _204  and  _205
REMARK   81  A    between atoms: _208  and  _210
REMARK   82  A    between atoms: _210  and  _211
REMARK   83  A    between atoms: _210  and  _213
REMARK   84  A    between atoms: _213  and  _214
REMARK   85  A    between atoms: _219  and  _220
REMARK   86  A    between atoms: _222  and  _224
REMARK   87  A    between atoms: _224  and  _225
REMARK   88  A    between atoms: _228  and  _230
REMARK   89  A    between atoms: _230  and  _231
REMARK   90  A    between atoms: _230  and  _233
REMARK   91  A    between atoms: _233  and  _234
REMARK   92  A    between atoms: _237  and  _239
REMARK   93  A    between atoms: _239  and  _240
REMARK   94  A    between atoms: _239  and  _242
REMARK   95  A    between atoms: _245  and  _247
REMARK   96  A    between atoms: _247  and  _248
REMARK   97  A    between atoms: _247  and  _250
REMARK   98  A    between atoms: _250  and  _251
REMARK   99  A    between atoms: _254  and  _256
REMARK  100  A    between atoms: _256  and  _257
REMARK  101  A    between atoms: _256  and  _259
REMARK  102  A    between atoms: _262  and  _264
REMARK  103  A    between atoms: _264  and  _265
REMARK  104  A    between atoms: _264  and  _267
REMARK  105  A    between atoms: _267  and  _268
REMARK  106  A    between atoms: _271  and  _273
REMARK  107  A    between atoms: _273  and  _274
REMARK  108  A    between atoms: _273  and  _276
REMARK  109  A    between atoms: _276  and  _277
REMARK  110  A    between atoms: _277  and  _278
REMARK  111  A    between atoms: _281  and  _283
REMARK  112  A    between atoms: _283  and  _284
REMARK  113  A    between atoms: _283  and  _286
REMARK  114  A    between atoms: _289  and  _291
REMARK  115  A    between atoms: _291  and  _292
REMARK  116  A    between atoms: _291  and  _294
REMARK  117  A    between atoms: _294  and  _295
REMARK  118  A    between atoms: _298  and  _300
REMARK  119  A    between atoms: _300  and  _301
REMARK  120  A    between atoms: _304  and  _306
REMARK  121  A    between atoms: _306  and  _307
REMARK  122  A    between atoms: _306  and  _309
REMARK  123  A    between atoms: _309  and  _310
REMARK  124  A    between atoms: _313  and  _315
REMARK  125  A    between atoms: _315  and  _316
REMARK  126  A    between atoms: _315  and  _318
REMARK  127  A    between atoms: _318  and  _319
REMARK  128  A    between atoms: _321  and  _323
REMARK  129  A    between atoms: _323  and  _324
REMARK  130  A    between atoms: _326  and  _328
REMARK  131  A    between atoms: _328  and  _329
REMARK  132  A    between atoms: _328  and  _331
REMARK  133  A    between atoms: _331  and  _332
REMARK  134  A    between atoms: _335  and  _337
REMARK  135  A    between atoms: _337  and  _338
REMARK  136  A    between atoms: _337  and  _340
REMARK  137  A    between atoms: _340  and  _341
REMARK  138  A    between atoms: _344  and  _346
REMARK  139  A    between atoms: _346  and  _347
REMARK  140  A    between atoms: _346  and  _349
REMARK  141  A    between atoms: _349  and  _350
REMARK  142  A    between atoms: _353  and  _355
REMARK  143  A    between atoms: _355  and  _356
REMARK  144  A    between atoms: _355  and  _358
REMARK  145  A    between atoms: _361  and  _363
REMARK  146  A    between atoms: _363  and  _364
REMARK  147  A    between atoms: _363  and  _366
REMARK  148  A    between atoms: _366  and  _367
REMARK  149  A    between atoms: _369  and  _371
REMARK  150  A    between atoms: _371  and  _372
REMARK  151  A    between atoms: _371  and  _374
REMARK  152  A    between atoms: _374  and  _375
REMARK  153  A    between atoms: _378  and  _380
REMARK  154  A    between atoms: _380  and  _381
REMARK  155  A    between atoms: _380  and  _383
REMARK  156  A    between atoms: _383  and  _384
REMARK  157  A    between atoms: _389  and  _390
REMARK  158  A    between atoms: _392  and  _394
REMARK  159  A    between atoms: _394  and  _395
REMARK  160  A    between atoms: _394  and  _397
REMARK  161  A    between atoms: _397  and  _398
REMARK  162  A    between atoms: _398  and  _399
REMARK  163  A    between atoms: _399  and  _400
REMARK  164  A    between atoms: _409  and  _411
REMARK  165  A    between atoms: _411  and  _412
REMARK  166  A    between atoms: _411  and  _414
REMARK  167  A    between atoms: _414  and  _415
REMARK  168  A    between atoms: _417  and  _419
REMARK  169  A    between atoms: _419  and  _420
REMARK  170  A    between atoms: _419  and  _422
REMARK  171  A    between atoms: _424  and  _426
REMARK  172  A    between atoms: _426  and  _427
REMARK  173  A    between atoms: _426  and  _429
REMARK  174  A    between atoms: _429  and  _430
REMARK  175  A    between atoms: _433  and  _435
REMARK  176  A    between atoms: _435  and  _436
REMARK  177  A    between atoms: _435  and  _438
REMARK  178  A    between atoms: _441  and  _443
REMARK  179  A    between atoms: _443  and  _444
REMARK  180  A    between atoms: _443  and  _446
REMARK  181  A    between atoms: _446  and  _447
REMARK  182  A    between atoms: _447  and  _448
REMARK  183  A    between atoms: _450  and  _452
REMARK  184  A    between atoms: _452  and  _453
REMARK  185  A    between atoms: _452  and  _455
REMARK  186  A    between atoms: _455  and  _456
REMARK  187  A    between atoms: _456  and  _457
REMARK  188  A    between atoms: _457  and  _458
REMARK  189  A    between atoms: _467  and  _469
REMARK  190  A    between atoms: _469  and  _470
REMARK  191  A    between atoms: _473  and  _474
REMARK  192  A    between atoms: _479  and  _481
REMARK  193  A    between atoms: _481  and  _482
REMARK  194  A    between atoms: _481  and  _484
REMARK  195  A    between atoms: _484  and  _485
REMARK  196  A    between atoms: _485  and  _486
REMARK  197  A    between atoms: _489  and  _491
REMARK  198  A    between atoms: _491  and  _492
REMARK  199  A    between atoms: _491  and  _494
REMARK  200  A    between atoms: _494  and  _495
REMARK  201  A    between atoms: _498  and  _500
REMARK  202  A    between atoms: _500  and  _501
REMARK  203  A    between atoms: _500  and  _503
REMARK  204  A    between atoms: _503  and  _504
REMARK  205  A    between atoms: _514  and  _516
REMARK  206  A    between atoms: _516  and  _517
REMARK  207  A    between atoms: _516  and  _519
REMARK  208  A    between atoms: _522  and  _524
REMARK  209  A    between atoms: _524  and  _525
REMARK  210  A    between atoms: _524  and  _527
REMARK  211  A    between atoms: _527  and  _528
REMARK                            x       y       z     vdW  Elec       q    Type
REMARK                         _______ _______ _______ _____ _____    ______ ____
ROOT
ATOM      1  O   HOH     1      -4.399  36.565  -5.632  0.00  0.00    +0.000 OA
ENDROOT
TORSDOF 0
REMARK  Name = ../refined-set-2016/3brn/3brn_pocket.pdb
REMARK  211 active torsions:
REMARK  status: ('A' for Active; 'I' for Inactive)
REMARK    1  A    between atoms: _1  and  _3
REMARK    2  A    between atoms: _3  and  _4
REMARK    3  A    between atoms: _7  and  _9
REMARK    4  A    between atoms: _9  and  _10
REMARK    5  A    between atoms: _9  and  _12
REMARK    6  A    between atoms: _12  and  _13
REMARK    7  A    between atoms: _18  and  _19
REMARK    8  A    between atoms: _21  and  _23
REMARK    9  A    between atoms: _23  and  _24
REMARK   10  A    between atoms: _23  and  _26
REMARK   11  A    between atoms: _26  and  _27
REMARK   12  A    between atoms: _27  and  _28
REMARK   13  A    between atoms: _28  and  _29
REMARK   14  A    between atoms: _29  and  _30
REMARK   15  A    between atoms: _34  and  _36
REMARK   16  A    between atoms: _36  and  _37
REMARK   17  A    between atoms: _36  and  _39
REMARK   18  A    between atoms: _39  and  _40
REMARK   19  A    between atoms: _42  and  _44
REMARK   20  A    between atoms: _44  and  _45
REMARK   21  A    between atoms: _44  and  _47
REMARK   22  A    between atoms: _50  and  _52
REMARK   23  A    between atoms: _52  and  _53
REMARK   24  A    between atoms: _52  and  _55
REMARK   25  A    between atoms: _55  and  _56
REMARK   26  A    between atoms: _61  and  _63
REMARK   27  A    between atoms: _63  and  _64
REMARK   28  A    between atoms: _67  and  _68
REMARK   29  A    between atoms: _73  and  _75
REMARK   30  A    between atoms: _75  and  _76
REMARK   31  A    between atoms: _78  and  _80
REMARK   32  A    between atoms: _80  and  _81
REMARK   33  A    between atoms: _80  and  _83
REMARK   34  A    between atoms: _83  and  _84
REMARK   35  A    between atoms: _89  and  _90
REMARK   36  A    between atoms: _92  and  _94
REMARK   37  A    between atoms: _94  and  _95
REMARK   38  A    between atoms: _94  and  _97
REMARK   39  A    between atoms: _97  and  _98
REMARK   40  A    between atoms: _103  and  _104
REMARK   41  A    between atoms: _106  and  _108
REMARK   42  A    between atoms: _108  and  _109
REMARK   43  A    between atoms: _108  and  _111
REMARK   44  A    between atoms: _111  and  _112
REMARK   45  A    between atoms: _115  and  _117
REMARK   46  A    between atoms: _117  and  _118
REMARK   47  A    between atoms: _117  and  _120
REMARK   48  A    between atoms: _120  and  _121
REMARK   49  A    between atoms: _126  and  _127
REMARK   50  A    between atoms: _129  and  _131
REMARK   51  A    between atoms: _131  and  _132
REMARK   52  A    between atoms: _131  and  _134
REMARK   53  A    between atoms: _137  and  _139
REMARK   54  A    between atoms: _139  and  _140
REMARK   55  A    between atoms: _139  and  _142
REMARK   56  A    between atoms: _142  and  _143
REMARK   57  A    between atoms: _146  and  _148
REMARK   58  A    between atoms: _148  and  _149
REMARK   59  A    between atoms: _148  and  _151
REMARK   60  A    between atoms: _155  and  _156
REMARK   61  A    between atoms: _161  and  _163
REMARK   62  A    between atoms: _163  and  _164
REMARK   63  A    between atoms: _163  and  _166
REMARK   64  A    between atoms: _166  and  _167
REMARK   65  A    between atoms: _170  and  _172
REMARK   66  A    between atoms: _172  and  _173
REMARK   67  A    between atoms: _172  and  _175
REMARK   68  A    between atoms: _175  and  _176
REMARK   69  A    between atoms: _179  and  _181
REMARK   70  A    between atoms: _181  and  _182
REMARK   71  A    between atoms: _181  and  _184
REMARK   72  A    between atoms: _184  and  _185
REMARK   73  A    between atoms: _187  and  _189
REMARK   74  A    between atoms: _189  and  _190
REMARK   75  A    between atoms: _189  and  _192
REMARK   76  A    between atoms: _192  and  _193
REMARK   77  A    between atoms: _199  and  _201
REMARK   78  A    between atoms: _201  and  _202
REMARK   79  A    between atoms: _201  and  _204
REMARK   80  A    between atoms: _204  and  _205
REMARK   81  A    between atoms: _208  and  _210
REMARK   82  A    between atoms: _210  and  _211
REMARK   83  A    between atoms: _210  and  _213
REMARK   84  A    between atoms: _213  and  _214
REMARK   85  A    between atoms: _219  and  _220
REMARK   86  A    between atoms: _222  and  _224
REMARK   87  A    between atoms: _224  and  _225
REMARK   88  A    between atoms: _228  and  _230
REMARK   89  A    between atoms: _230  and  _231
REMARK   90  A    between atoms: _230  and  _233
REMARK   91  A    between atoms: _233  and  _234
REMARK   92  A    between atoms: _237  and  _239
REMARK   93  A    between atoms: _239  and  _240
REMARK   94  A    between atoms: _239  and  _242
REMARK   95  A    between atoms: _245  and  _247
REMARK   96  A    between atoms: _247  and  _248
REMARK   97  A    between atoms: _247  and  _250
REMARK   98  A    between atoms: _250  and  _251
REMARK   99  A    between atoms: _254  and  _256
REMARK  100  A    between atoms: _256  and  _257
REMARK  101  A    between atoms: _256  and  _259
REMARK  102  A    between atoms: _262  and  _264
REMARK  103  A    between atoms: _264  and  _265
REMARK  104  A    between atoms: _264  and  _267
REMARK  105  A    between atoms: _267  and  _268
REMARK  106  A    between atoms: _271  and  _273
REMARK  107  A    between atoms: _273  and  _274
REMARK  108  A    between atoms: _273  and  _276
REMARK  109  A    between atoms: _276  and  _277
REMARK  110  A    between atoms: _277  and  _278
REMARK  111  A    between atoms: _281  and  _283
REMARK  112  A    between atoms: _283  and  _284
REMARK  113  A    between atoms: _283  and  _286
REMARK  114  A    between atoms: _289  and  _291
REMARK  115  A    between atoms: _291  and  _292
REMARK  116  A    between atoms: _291  and  _294
REMARK  117  A    between atoms: _294  and  _295
REMARK  118  A    between atoms: _298  and  _300
REMARK  119  A    between atoms: _300  and  _301
REMARK  120  A    between atoms: _304  and  _306
REMARK  121  A    between atoms: _306  and  _307
REMARK  122  A    between atoms: _306  and  _309
REMARK  123  A    between atoms: _309  and  _310
REMARK  124  A    between atoms: _313  and  _315
REMARK  125  A    between atoms: _315  and  _316
REMARK  126  A    between atoms: _315  and  _318
REMARK  127  A    between atoms: _318  and  _319
REMARK  128  A    between atoms: _321  and  _323
REMARK  129  A    between atoms: _323  and  _324
REMARK  130  A    between atoms: _326  and  _328
REMARK  131  A    between atoms: _328  and  _329
REMARK  132  A    between atoms: _328  and  _331
REMARK  133  A    between atoms: _331  and  _332
REMARK  134  A    between atoms: _335  and  _337
REMARK  135  A    between atoms: _337  and  _338
REMARK  136  A    between atoms: _337  and  _340
REMARK  137  A    between atoms: _340  and  _341
REMARK  138  A    between atoms: _344  and  _346
REMARK  139  A    between atoms: _346  and  _347
REMARK  140  A    between atoms: _346  and  _349
REMARK  141  A    between atoms: _349  and  _350
REMARK  142  A    between atoms: _353  and  _355
REMARK  143  A    between atoms: _355  and  _356
REMARK  144  A    between atoms: _355  and  _358
REMARK  145  A    between atoms: _361  and  _363
REMARK  146  A    between atoms: _363  and  _364
REMARK  147  A    between atoms: _363  and  _366
REMARK  148  A    between atoms: _366  and  _367
REMARK  149  A    between atoms: _369  and  _371
REMARK  150  A    between atoms: _371  and  _372
REMARK  151  A    between atoms: _371  and  _374
REMARK  152  A    between atoms: _374  and  _375
REMARK  153  A    between atoms: _378  and  _380
REMARK  154  A    between atoms: _380  and  _381
REMARK  155  A    between atoms: _380  and  _383
REMARK  156  A    between atoms: _383  and  _384
REMARK  157  A    between atoms: _389  and  _390
REMARK  158  A    between atoms: _392  and  _394
REMARK  159  A    between atoms: _394  and  _395
REMARK  160  A    between atoms: _394  and  _397
REMARK  161  A    between atoms: _397  and  _398
REMARK  162  A    between atoms: _398  and  _399
REMARK  163  A    between atoms: _399  and  _400
REMARK  164  A    between atoms: _409  and  _411
REMARK  165  A    between atoms: _411  and  _412
REMARK  166  A    between atoms: _411  and  _414
REMARK  167  A    between atoms: _414  and  _415
REMARK  168  A    between atoms: _417  and  _419
REMARK  169  A    between atoms: _419  and  _420
REMARK  170  A    between atoms: _419  and  _422
REMARK  171  A    between atoms: _424  and  _426
REMARK  172  A    between atoms: _426  and  _427
REMARK  173  A    between atoms: _426  and  _429
REMARK  174  A    between atoms: _429  and  _430
REMARK  175  A    between atoms: _433  and  _435
REMARK  176  A    between atoms: _435  and  _436
REMARK  177  A    between atoms: _435  and  _438
REMARK  178  A    between atoms: _441  and  _443
REMARK  179  A    between atoms: _443  and  _444
REMARK  180  A    between atoms: _443  and  _446
REMARK  181  A    between atoms: _446  and  _447
REMARK  182  A    between atoms: _447  and  _448
REMARK  183  A    between atoms: _450  and  _452
REMARK  184  A    between atoms: _452  and  _453
REMARK  185  A    between atoms: _452  and  _455
REMARK  186  A    between atoms: _455  and  _456
REMARK  187  A    between atoms: _456  and  _457
REMARK  188  A    between atoms: _457  and  _458
REMARK  189  A    between atoms: _467  and  _469
REMARK  190  A    between atoms: _469  and  _470
REMARK  191  A    between atoms: _473  and  _474
REMARK  192  A    between atoms: _479  and  _481
REMARK  193  A    between atoms: _481  and  _482
REMARK  194  A    between atoms: _481  and  _484
REMARK  195  A    between atoms: _484  and  _485
REMARK  196  A    between atoms: _485  and  _486
REMARK  197  A    between atoms: _489  and  _491
REMARK  198  A    between atoms: _491  and  _492
REMARK  199  A    between atoms: _491  and  _494
REMARK  200  A    between atoms: _494  and  _495
REMARK  201  A    between atoms: _498  and  _500
REMARK  202  A    between atoms: _500  and  _501
REMARK  203  A    between atoms: _500  and  _503
REMARK  204  A    between atoms: _503  and  _504
REMARK  205  A    between atoms: _514  and  _516
REMARK  206  A    between atoms: _516  and  _517
REMARK  207  A    between atoms: _516  and  _519
REMARK  208  A    between atoms: _522  and  _524
REMARK  209  A    between atoms: _524  and  _525
REMARK  210  A    between atoms: _524  and  _527
REMARK  211  A    between atoms: _527  and  _528
REMARK                            x       y       z     vdW  Elec       q    Type
REMARK                         _______ _______ _______ _____ _____    ______ ____
ROOT
ATOM      1  O   HOH     1     -11.541  32.802 -13.387  0.00  0.00    +0.000 OA
ENDROOT
TORSDOF 0
REMARK  Name = ../refined-set-2016/3brn/3brn_pocket.pdb
REMARK  211 active torsions:
REMARK  status: ('A' for Active; 'I' for Inactive)
REMARK    1  A    between atoms: _1  and  _3
REMARK    2  A    between atoms: _3  and  _4
REMARK    3  A    between atoms: _7  and  _9
REMARK    4  A    between atoms: _9  and  _10
REMARK    5  A    between atoms: _9  and  _12
REMARK    6  A    between atoms: _12  and  _13
REMARK    7  A    between atoms: _18  and  _19
REMARK    8  A    between atoms: _21  and  _23
REMARK    9  A    between atoms: _23  and  _24
REMARK   10  A    between atoms: _23  and  _26
REMARK   11  A    between atoms: _26  and  _27
REMARK   12  A    between atoms: _27  and  _28
REMARK   13  A    between atoms: _28  and  _29
REMARK   14  A    between atoms: _29  and  _30
REMARK   15  A    between atoms: _34  and  _36
REMARK   16  A    between atoms: _36  and  _37
REMARK   17  A    between atoms: _36  and  _39
REMARK   18  A    between atoms: _39  and  _40
REMARK   19  A    between atoms: _42  and  _44
REMARK   20  A    between atoms: _44  and  _45
REMARK   21  A    between atoms: _44  and  _47
REMARK   22  A    between atoms: _50  and  _52
REMARK   23  A    between atoms: _52  and  _53
REMARK   24  A    between atoms: _52  and  _55
REMARK   25  A    between atoms: _55  and  _56
REMARK   26  A    between atoms: _61  and  _63
REMARK   27  A    between atoms: _63  and  _64
REMARK   28  A    between atoms: _67  and  _68
REMARK   29  A    between atoms: _73  and  _75
REMARK   30  A    between atoms: _75  and  _76
REMARK   31  A    between atoms: _78  and  _80
REMARK   32  A    between atoms: _80  and  _81
REMARK   33  A    between atoms: _80  and  _83
REMARK   34  A    between atoms: _83  and  _84
REMARK   35  A    between atoms: _89  and  _90
REMARK   36  A    between atoms: _92  and  _94
REMARK   37  A    between atoms: _94  and  _95
REMARK   38  A    between atoms: _94  and  _97
REMARK   39  A    between atoms: _97  and  _98
REMARK   40  A    between atoms: _103  and  _104
REMARK   41  A    between atoms: _106  and  _108
REMARK   42  A    between atoms: _108  and  _109
REMARK   43  A    between atoms: _108  and  _111
REMARK   44  A    between atoms: _111  and  _112
REMARK   45  A    between atoms: _115  and  _117
REMARK   46  A    between atoms: _117  and  _118
REMARK   47  A    between atoms: _117  and  _120
REMARK   48  A    between atoms: _120  and  _121
REMARK   49  A    between atoms: _126  and  _127
REMARK   50  A    between atoms: _129  and  _131
REMARK   51  A    between atoms: _131  and  _132
REMARK   52  A    between atoms: _131  and  _134
REMARK   53  A    between atoms: _137  and  _139
REMARK   54  A    between atoms: _139  and  _140
REMARK   55  A    between atoms: _139  and  _142
REMARK   56  A    between atoms: _142  and  _143
REMARK   57  A    between atoms: _146  and  _148
REMARK   58  A    between atoms: _148  and  _149
REMARK   59  A    between atoms: _148  and  _151
REMARK   60  A    between atoms: _155  and  _156
REMARK   61  A    between atoms: _161  and  _163
REMARK   62  A    between atoms: _163  and  _164
REMARK   63  A    between atoms: _163  and  _166
REMARK   64  A    between atoms: _166  and  _167
REMARK   65  A    between atoms: _170  and  _172
REMARK   66  A    between atoms: _172  and  _173
REMARK   67  A    between atoms: _172  and  _175
REMARK   68  A    between atoms: _175  and  _176
REMARK   69  A    between atoms: _179  and  _181
REMARK   70  A    between atoms: _181  and  _182
REMARK   71  A    between atoms: _181  and  _184
REMARK   72  A    between atoms: _184  and  _185
REMARK   73  A    between atoms: _187  and  _189
REMARK   74  A    between atoms: _189  and  _190
REMARK   75  A    between atoms: _189  and  _192
REMARK   76  A    between atoms: _192  and  _193
REMARK   77  A    between atoms: _199  and  _201
REMARK   78  A    between atoms: _201  and  _202
REMARK   79  A    between atoms: _201  and  _204
REMARK   80  A    between atoms: _204  and  _205
REMARK   81  A    between atoms: _208  and  _210
REMARK   82  A    between atoms: _210  and  _211
REMARK   83  A    between atoms: _210  and  _213
REMARK   84  A    between atoms: _213  and  _214
REMARK   85  A    between atoms: _219  and  _220
REMARK   86  A    between atoms: _222  and  _224
REMARK   87  A    between atoms: _224  and  _225
REMARK   88  A    between atoms: _228  and  _230
REMARK   89  A    between atoms: _230  and  _231
REMARK   90  A    between atoms: _230  and  _233
REMARK   91  A    between atoms: _233  and  _234
REMARK   92  A    between atoms: _237  and  _239
REMARK   93  A    between atoms: _239  and  _240
REMARK   94  A    between atoms: _239  and  _242
REMARK   95  A    between atoms: _245  and  _247
REMARK   96  A    between atoms: _247  and  _248
REMARK   97  A    between atoms: _247  and  _250
REMARK   98  A    between atoms: _250  and  _251
REMARK   99  A    between atoms: _254  and  _256
REMARK  100  A    between atoms: _256  and  _257
REMARK  101  A    between atoms: _256  and  _259
REMARK  102  A    between atoms: _262  and  _264
REMARK  103  A    between atoms: _264  and  _265
REMARK  104  A    between atoms: _264  and  _267
REMARK  105  A    between atoms: _267  and  _268
REMARK  106  A    between atoms: _271  and  _273
REMARK  107  A    between atoms: _273  and  _274
REMARK  108  A    between atoms: _273  and  _276
REMARK  109  A    between atoms: _276  and  _277
REMARK  110  A    between atoms: _277  and  _278
REMARK  111  A    between atoms: _281  and  _283
REMARK  112  A    between atoms: _283  and  _284
REMARK  113  A    between atoms: _283  and  _286
REMARK  114  A    between atoms: _289  and  _291
REMARK  115  A    between atoms: _291  and  _292
REMARK  116  A    between atoms: _291  and  _294
REMARK  117  A    between atoms: _294  and  _295
REMARK  118  A    between atoms: _298  and  _300
REMARK  119  A    between atoms: _300  and  _301
REMARK  120  A    between atoms: _304  and  _306
REMARK  121  A    between atoms: _306  and  _307
REMARK  122  A    between atoms: _306  and  _309
REMARK  123  A    between atoms: _309  and  _310
REMARK  124  A    between atoms: _313  and  _315
REMARK  125  A    between atoms: _315  and  _316
REMARK  126  A    between atoms: _315  and  _318
REMARK  127  A    between atoms: _318  and  _319
REMARK  128  A    between atoms: _321  and  _323
REMARK  129  A    between atoms: _323  and  _324
REMARK  130  A    between atoms: _326  and  _328
REMARK  131  A    between atoms: _328  and  _329
REMARK  132  A    between atoms: _328  and  _331
REMARK  133  A    between atoms: _331  and  _332
REMARK  134  A    between atoms: _335  and  _337
REMARK  135  A    between atoms: _337  and  _338
REMARK  136  A    between atoms: _337  and  _340
REMARK  137  A    between atoms: _340  and  _341
REMARK  138  A    between atoms: _344  and  _346
REMARK  139  A    between atoms: _346  and  _347
REMARK  140  A    between atoms: _346  and  _349
REMARK  141  A    between atoms: _349  and  _350
REMARK  142  A    between atoms: _353  and  _355
REMARK  143  A    between atoms: _355  and  _356
REMARK  144  A    between atoms: _355  and  _358
REMARK  145  A    between atoms: _361  and  _363
REMARK  146  A    between atoms: _363  and  _364
REMARK  147  A    between atoms: _363  and  _366
REMARK  148  A    between atoms: _366  and  _367
REMARK  149  A    between atoms: _369  and  _371
REMARK  150  A    between atoms: _371  and  _372
REMARK  151  A    between atoms: _371  and  _374
REMARK  152  A    between atoms: _374  and  _375
REMARK  153  A    between atoms: _378  and  _380
REMARK  154  A    between atoms: _380  and  _381
REMARK  155  A    between atoms: _380  and  _383
REMARK  156  A    between atoms: _383  and  _384
REMARK  157  A    between atoms: _389  and  _390
REMARK  158  A    between atoms: _392  and  _394
REMARK  159  A    between atoms: _394  and  _395
REMARK  160  A    between atoms: _394  and  _397
REMARK  161  A    between atoms: _397  and  _398
REMARK  162  A    between atoms: _398  and  _399
REMARK  163  A    between atoms: _399  and  _400
REMARK  164  A    between atoms: _409  and  _411
REMARK  165  A    between atoms: _411  and  _412
REMARK  166  A    between atoms: _411  and  _414
REMARK  167  A    between atoms: _414  and  _415
REMARK  168  A    between atoms: _417  and  _419
REMARK  169  A    between atoms: _419  and  _420
REMARK  170  A    between atoms: _419  and  _422
REMARK  171  A    between atoms: _424  and  _426
REMARK  172  A    between atoms: _426  and  _427
REMARK  173  A    between atoms: _426  and  _429
REMARK  174  A    between atoms: _429  and  _430
REMARK  175  A    between atoms: _433  and  _435
REMARK  176  A    between atoms: _435  and  _436
REMARK  177  A    between atoms: _435  and  _438
REMARK  178  A    between atoms: _441  and  _443
REMARK  179  A    between atoms: _443  and  _444
REMARK  180  A    between atoms: _443  and  _446
REMARK  181  A    between atoms: _446  and  _447
REMARK  182  A    between atoms: _447  and  _448
REMARK  183  A    between atoms: _450  and  _452
REMARK  184  A    between atoms: _452  and  _453
REMARK  185  A    between atoms: _452  and  _455
REMARK  186  A    between atoms: _455  and  _456
REMARK  187  A    between atoms: _456  and  _457
REMARK  188  A    between atoms: _457  and  _458
REMARK  189  A    between atoms: _467  and  _469
REMARK  190  A    between atoms: _469  and  _470
REMARK  191  A    between atoms: _473  and  _474
REMARK  192  A    between atoms: _479  and  _481
REMARK  193  A    between atoms: _481  and  _482
REMARK  194  A    between atoms: _481  and  _484
REMARK  195  A    between atoms: _484  and  _485
REMARK  196  A    between atoms: _485  and  _486
REMARK  197  A    between atoms: _489  and  _491
REMARK  198  A    between atoms: _491  and  _492
REMARK  199  A    between atoms: _491  and  _494
REMARK  200  A    between atoms: _494  and  _495
REMARK  201  A    between atoms: _498  and  _500
REMARK  202  A    between atoms: _500  and  _501
REMARK  203  A    between atoms: _500  and  _503
REMARK  204  A    between atoms: _503  and  _504
REMARK  205  A    between atoms: _514  and  _516
REMARK  206  A    between atoms: _516  and  _517
REMARK  207  A    between atoms: _516  and  _519
REMARK  208  A    between atoms: _522  and  _524
REMARK  209  A    between atoms: _524  and  _525
REMARK  210  A    between atoms: _524  and  _527
REMARK  211  A    between atoms: _527  and  _528
REMARK                            x       y       z     vdW  Elec       q    Type
REMARK                         _______ _______ _______ _____ _____    ______ ____
ROOT
ATOM      1  O   HOH     1     -17.063  36.288 -13.146  0.00  0.00    +0.000 OA
ENDROOT
TORSDOF 0
