REMARK  Name = ../refined-set-2016/3tza/3tza_pocket.pdb
REMARK  226 active torsions:
REMARK  status: ('A' for Active; 'I' for Inactive)
REMARK    1  A    between atoms: _1  and  _3
REMARK    2  A    between atoms: _3  and  _4
REMARK    3  A    between atoms: _3  and  _6
REMARK    4  A    between atoms: _6  and  _7
REMARK    5  A    between atoms: _10  and  _12
REMARK    6  A    between atoms: _12  and  _13
REMARK    7  A    between atoms: _12  and  _15
REMARK    8  A    between atoms: _15  and  _16
REMARK    9  A    between atoms: _16  and  _17
REMARK   10  A    between atoms: _20  and  _22
REMARK   11  A    between atoms: _22  and  _23
REMARK   12  A    between atoms: _22  and  _25
REMARK   13  A    between atoms: _25  and  _26
REMARK   14  A    between atoms: _29  and  _30
REMARK   15  A    between atoms: _35  and  _37
REMARK   16  A    between atoms: _37  and  _38
REMARK   17  A    between atoms: _37  and  _40
REMARK   18  A    between atoms: _40  and  _41
REMARK   19  A    between atoms: _46  and  _47
REMARK   20  A    between atoms: _49  and  _51
REMARK   21  A    between atoms: _51  and  _52
REMARK   22  A    between atoms: _51  and  _54
REMARK   23  A    between atoms: _54  and  _55
REMARK   24  A    between atoms: _55  and  _56
REMARK   25  A    between atoms: _56  and  _57
REMARK   26  A    between atoms: _57  and  _58
REMARK   27  A    between atoms: _62  and  _64
REMARK   28  A    between atoms: _64  and  _65
REMARK   29  A    between atoms: _64  and  _67
REMARK   30  A    between atoms: _67  and  _68
REMARK   31  A    between atoms: _73  and  _74
REMARK   32  A    between atoms: _76  and  _78
REMARK   33  A    between atoms: _78  and  _79
REMARK   34  A    between atoms: _81  and  _83
REMARK   35  A    between atoms: _83  and  _84
REMARK   36  A    between atoms: _87  and  _89
REMARK   37  A    between atoms: _89  and  _90
REMARK   38  A    between atoms: _89  and  _92
REMARK   39  A    between atoms: _92  and  _93
REMARK   40  A    between atoms: _93  and  _94
REMARK   41  A    between atoms: _96  and  _98
REMARK   42  A    between atoms: _98  and  _99
REMARK   43  A    between atoms: _98  and  _101
REMARK   44  A    between atoms: _104  and  _106
REMARK   45  A    between atoms: _106  and  _107
REMARK   46  A    between atoms: _111  and  _112
REMARK   47  A    between atoms: _117  and  _119
REMARK   48  A    between atoms: _119  and  _120
REMARK   49  A    between atoms: _119  and  _122
REMARK   50  A    between atoms: _122  and  _123
REMARK   51  A    between atoms: _126  and  _128
REMARK   52  A    between atoms: _128  and  _129
REMARK   53  A    between atoms: _128  and  _131
REMARK   54  A    between atoms: _131  and  _132
REMARK   55  A    between atoms: _135  and  _137
REMARK   56  A    between atoms: _137  and  _138
REMARK   57  A    between atoms: _137  and  _140
REMARK   58  A    between atoms: _140  and  _141
REMARK   59  A    between atoms: _144  and  _146
REMARK   60  A    between atoms: _146  and  _147
REMARK   61  A    between atoms: _146  and  _149
REMARK   62  A    between atoms: _149  and  _150
REMARK   63  A    between atoms: _153  and  _155
REMARK   64  A    between atoms: _155  and  _156
REMARK   65  A    between atoms: _155  and  _158
REMARK   66  A    between atoms: _158  and  _159
REMARK   67  A    between atoms: _159  and  _160
REMARK   68  A    between atoms: _160  and  _161
REMARK   69  A    between atoms: _170  and  _172
REMARK   70  A    between atoms: _172  and  _173
REMARK   71  A    between atoms: _172  and  _175
REMARK   72  A    between atoms: _175  and  _176
REMARK   73  A    between atoms: _182  and  _184
REMARK   74  A    between atoms: _184  and  _185
REMARK   75  A    between atoms: _184  and  _187
REMARK   76  A    between atoms: _187  and  _188
REMARK   77  A    between atoms: _191  and  _193
REMARK   78  A    between atoms: _193  and  _194
REMARK   79  A    between atoms: _196  and  _198
REMARK   80  A    between atoms: _198  and  _199
REMARK   81  A    between atoms: _198  and  _201
REMARK   82  A    between atoms: _201  and  _202
REMARK   83  A    between atoms: _205  and  _207
REMARK   84  A    between atoms: _207  and  _208
REMARK   85  A    between atoms: _207  and  _210
REMARK   86  A    between atoms: _210  and  _211
REMARK   87  A    between atoms: _213  and  _215
REMARK   88  A    between atoms: _215  and  _216
REMARK   89  A    between atoms: _215  and  _218
REMARK   90  A    between atoms: _218  and  _219
REMARK   91  A    between atoms: _219  and  _220
REMARK   92  A    between atoms: _222  and  _224
REMARK   93  A    between atoms: _224  and  _225
REMARK   94  A    between atoms: _224  and  _227
REMARK   95  A    between atoms: _227  and  _228
REMARK   96  A    between atoms: _231  and  _233
REMARK   97  A    between atoms: _233  and  _234
REMARK   98  A    between atoms: _233  and  _236
REMARK   99  A    between atoms: _236  and  _237
REMARK  100  A    between atoms: _240  and  _242
REMARK  101  A    between atoms: _242  and  _243
REMARK  102  A    between atoms: _242  and  _245
REMARK  103  A    between atoms: _245  and  _246
REMARK  104  A    between atoms: _249  and  _251
REMARK  105  A    between atoms: _251  and  _252
REMARK  106  A    between atoms: _251  and  _254
REMARK  107  A    between atoms: _254  and  _255
REMARK  108  A    between atoms: _257  and  _259
REMARK  109  A    between atoms: _259  and  _260
REMARK  110  A    between atoms: _262  and  _264
REMARK  111  A    between atoms: _264  and  _265
REMARK  112  A    between atoms: _264  and  _267
REMARK  113  A    between atoms: _267  and  _268
REMARK  114  A    between atoms: _270  and  _272
REMARK  115  A    between atoms: _272  and  _273
REMARK  116  A    between atoms: _272  and  _275
REMARK  117  A    between atoms: _275  and  _276
REMARK  118  A    between atoms: _279  and  _281
REMARK  119  A    between atoms: _281  and  _282
REMARK  120  A    between atoms: _281  and  _284
REMARK  121  A    between atoms: _284  and  _285
REMARK  122  A    between atoms: _285  and  _286
REMARK  123  A    between atoms: _286  and  _287
REMARK  124  A    between atoms: _287  and  _288
REMARK  125  A    between atoms: _292  and  _294
REMARK  126  A    between atoms: _294  and  _295
REMARK  127  A    between atoms: _294  and  _297
REMARK  128  A    between atoms: _297  and  _298
REMARK  129  A    between atoms: _298  and  _299
REMARK  130  A    between atoms: _302  and  _304
REMARK  131  A    between atoms: _304  and  _305
REMARK  132  A    between atoms: _304  and  _307
REMARK  133  A    between atoms: _307  and  _308
REMARK  134  A    between atoms: _314  and  _316
REMARK  135  A    between atoms: _316  and  _317
REMARK  136  A    between atoms: _316  and  _319
REMARK  137  A    between atoms: _322  and  _324
REMARK  138  A    between atoms: _324  and  _325
REMARK  139  A    between atoms: _324  and  _327
REMARK  140  A    between atoms: _327  and  _328
REMARK  141  A    between atoms: _328  and  _329
REMARK  142  A    between atoms: _329  and  _330
REMARK  143  A    between atoms: _339  and  _341
REMARK  144  A    between atoms: _341  and  _342
REMARK  145  A    between atoms: _341  and  _344
REMARK  146  A    between atoms: _344  and  _345
REMARK  147  A    between atoms: _348  and  _350
REMARK  148  A    between atoms: _350  and  _351
REMARK  149  A    between atoms: _350  and  _353
REMARK  150  A    between atoms: _353  and  _354
REMARK  151  A    between atoms: _357  and  _359
REMARK  152  A    between atoms: _359  and  _360
REMARK  153  A    between atoms: _363  and  _365
REMARK  154  A    between atoms: _365  and  _366
REMARK  155  A    between atoms: _368  and  _370
REMARK  156  A    between atoms: _370  and  _371
REMARK  157  A    between atoms: _370  and  _373
REMARK  158  A    between atoms: _376  and  _378
REMARK  159  A    between atoms: _378  and  _379
REMARK  160  A    between atoms: _378  and  _381
REMARK  161  A    between atoms: _381  and  _382
REMARK  162  A    between atoms: _387  and  _388
REMARK  163  A    between atoms: _390  and  _392
REMARK  164  A    between atoms: _392  and  _393
REMARK  165  A    between atoms: _392  and  _395
REMARK  166  A    between atoms: _395  and  _396
REMARK  167  A    between atoms: _399  and  _401
REMARK  168  A    between atoms: _401  and  _402
REMARK  169  A    between atoms: _401  and  _404
REMARK  170  A    between atoms: _404  and  _405
REMARK  171  A    between atoms: _408  and  _410
REMARK  172  A    between atoms: _410  and  _411
REMARK  173  A    between atoms: _410  and  _413
REMARK  174  A    between atoms: _413  and  _414
REMARK  175  A    between atoms: _414  and  _415
REMARK  176  A    between atoms: _418  and  _420
REMARK  177  A    between atoms: _420  and  _421
REMARK  178  A    between atoms: _420  and  _423
REMARK  179  A    between atoms: _423  and  _424
REMARK  180  A    between atoms: _426  and  _428
REMARK  181  A    between atoms: _428  and  _429
REMARK  182  A    between atoms: _428  and  _431
REMARK  183  A    between atoms: _431  and  _432
REMARK  184  A    between atoms: _435  and  _437
REMARK  185  A    between atoms: _437  and  _438
REMARK  186  A    between atoms: _437  and  _440
REMARK  187  A    between atoms: _440  and  _441
REMARK  188  A    between atoms: _441  and  _442
REMARK  189  A    between atoms: _444  and  _446
REMARK  190  A    between atoms: _446  and  _447
REMARK  191  A    between atoms: _446  and  _449
REMARK  192  A    between atoms: _449  and  _450
REMARK  193  A    between atoms: _455  and  _457
REMARK  194  A    between atoms: _457  and  _458
REMARK  195  A    between atoms: _457  and  _460
REMARK  196  A    between atoms: _460  and  _461
REMARK  197  A    between atoms: _461  and  _462
REMARK  198  A    between atoms: _465  and  _467
REMARK  199  A    between atoms: _467  and  _468
REMARK  200  A    between atoms: _467  and  _470
REMARK  201  A    between atoms: _470  and  _471
REMARK  202  A    between atoms: _476  and  _477
REMARK  203  A    between atoms: _479  and  _481
REMARK  204  A    between atoms: _481  and  _482
REMARK  205  A    between atoms: _481  and  _484
REMARK  206  A    between atoms: _484  and  _485
REMARK  207  A    between atoms: _488  and  _490
REMARK  208  A    between atoms: _490  and  _491
REMARK  209  A    between atoms: _490  and  _493
REMARK  210  A    between atoms: _493  and  _494
REMARK  211  A    between atoms: _494  and  _495
REMARK  212  A    between atoms: _495  and  _496
REMARK  213  A    between atoms: _496  and  _497
REMARK  214  A    between atoms: _501  and  _503
REMARK  215  A    between atoms: _503  and  _504
REMARK  216  A    between atoms: _506  and  _508
REMARK  217  A    between atoms: _508  and  _509
REMARK  218  A    between atoms: _508  and  _511
REMARK  219  A    between atoms: _511  and  _512
REMARK  220  A    between atoms: _517  and  _518
REMARK  221  A    between atoms: _520  and  _522
REMARK  222  A    between atoms: _522  and  _523
REMARK  223  A    between atoms: _525  and  _527
REMARK  224  A    between atoms: _527  and  _528
REMARK  225  A    between atoms: _527  and  _530
REMARK  226  A    between atoms: _530  and  _531
REMARK                            x       y       z     vdW  Elec       q    Type
REMARK                         _______ _______ _______ _____ _____    ______ ____
ROOT
ATOM      1  CA  ILE A   1       1.570  35.426  57.493  0.00  0.00    +0.133 C 
ENDROOT
BRANCH   1   2
ATOM      2  N   ILE A   1       2.309  35.254  58.723  0.00  0.00    -0.239 NA
ATOM      3  H   ILE A   1       1.797  35.005  59.593  0.00  0.00    +0.142 HD
ENDBRANCH   1   2
BRANCH   1   4
ATOM      4  C   ILE A   1       0.229  36.117  57.772  0.00  0.00    +0.224 C 
ATOM      5  O   ILE A   1      -0.345  35.973  58.862  0.00  0.00    -0.287 OA
ENDBRANCH   1   4
BRANCH   1   6
ATOM      6  CB  ILE A   1       1.373  34.053  56.807  0.00  0.00    +0.023 C 
ATOM      7  CG2 ILE A   1       0.474  33.156  57.659  0.00  0.00    +0.002 C 
BRANCH   6   8
ATOM      8  CG1 ILE A   1       0.852  34.227  55.384  0.00  0.00    +0.002 C 
ATOM      9  CD1 ILE A   1       0.895  32.948  54.551  0.00  0.00    +0.000 C 
ENDBRANCH   6   8
ENDBRANCH   1   6
TORSDOF 4
REMARK  Name = ../refined-set-2016/3tza/3tza_pocket.pdb
REMARK  226 active torsions:
REMARK  status: ('A' for Active; 'I' for Inactive)
REMARK    1  A    between atoms: _1  and  _3
REMARK    2  A    between atoms: _3  and  _4
REMARK    3  A    between atoms: _3  and  _6
REMARK    4  A    between atoms: _6  and  _7
REMARK    5  A    between atoms: _10  and  _12
REMARK    6  A    between atoms: _12  and  _13
REMARK    7  A    between atoms: _12  and  _15
REMARK    8  A    between atoms: _15  and  _16
REMARK    9  A    between atoms: _16  and  _17
REMARK   10  A    between atoms: _20  and  _22
REMARK   11  A    between atoms: _22  and  _23
REMARK   12  A    between atoms: _22  and  _25
REMARK   13  A    between atoms: _25  and  _26
REMARK   14  A    between atoms: _29  and  _30
REMARK   15  A    between atoms: _35  and  _37
REMARK   16  A    between atoms: _37  and  _38
REMARK   17  A    between atoms: _37  and  _40
REMARK   18  A    between atoms: _40  and  _41
REMARK   19  A    between atoms: _46  and  _47
REMARK   20  A    between atoms: _49  and  _51
REMARK   21  A    between atoms: _51  and  _52
REMARK   22  A    between atoms: _51  and  _54
REMARK   23  A    between atoms: _54  and  _55
REMARK   24  A    between atoms: _55  and  _56
REMARK   25  A    between atoms: _56  and  _57
REMARK   26  A    between atoms: _57  and  _58
REMARK   27  A    between atoms: _62  and  _64
REMARK   28  A    between atoms: _64  and  _65
REMARK   29  A    between atoms: _64  and  _67
REMARK   30  A    between atoms: _67  and  _68
REMARK   31  A    between atoms: _73  and  _74
REMARK   32  A    between atoms: _76  and  _78
REMARK   33  A    between atoms: _78  and  _79
REMARK   34  A    between atoms: _81  and  _83
REMARK   35  A    between atoms: _83  and  _84
REMARK   36  A    between atoms: _87  and  _89
REMARK   37  A    between atoms: _89  and  _90
REMARK   38  A    between atoms: _89  and  _92
REMARK   39  A    between atoms: _92  and  _93
REMARK   40  A    between atoms: _93  and  _94
REMARK   41  A    between atoms: _96  and  _98
REMARK   42  A    between atoms: _98  and  _99
REMARK   43  A    between atoms: _98  and  _101
REMARK   44  A    between atoms: _104  and  _106
REMARK   45  A    between atoms: _106  and  _107
REMARK   46  A    between atoms: _111  and  _112
REMARK   47  A    between atoms: _117  and  _119
REMARK   48  A    between atoms: _119  and  _120
REMARK   49  A    between atoms: _119  and  _122
REMARK   50  A    between atoms: _122  and  _123
REMARK   51  A    between atoms: _126  and  _128
REMARK   52  A    between atoms: _128  and  _129
REMARK   53  A    between atoms: _128  and  _131
REMARK   54  A    between atoms: _131  and  _132
REMARK   55  A    between atoms: _135  and  _137
REMARK   56  A    between atoms: _137  and  _138
REMARK   57  A    between atoms: _137  and  _140
REMARK   58  A    between atoms: _140  and  _141
REMARK   59  A    between atoms: _144  and  _146
REMARK   60  A    between atoms: _146  and  _147
REMARK   61  A    between atoms: _146  and  _149
REMARK   62  A    between atoms: _149  and  _150
REMARK   63  A    between atoms: _153  and  _155
REMARK   64  A    between atoms: _155  and  _156
REMARK   65  A    between atoms: _155  and  _158
REMARK   66  A    between atoms: _158  and  _159
REMARK   67  A    between atoms: _159  and  _160
REMARK   68  A    between atoms: _160  and  _161
REMARK   69  A    between atoms: _170  and  _172
REMARK   70  A    between atoms: _172  and  _173
REMARK   71  A    between atoms: _172  and  _175
REMARK   72  A    between atoms: _175  and  _176
REMARK   73  A    between atoms: _182  and  _184
REMARK   74  A    between atoms: _184  and  _185
REMARK   75  A    between atoms: _184  and  _187
REMARK   76  A    between atoms: _187  and  _188
REMARK   77  A    between atoms: _191  and  _193
REMARK   78  A    between atoms: _193  and  _194
REMARK   79  A    between atoms: _196  and  _198
REMARK   80  A    between atoms: _198  and  _199
REMARK   81  A    between atoms: _198  and  _201
REMARK   82  A    between atoms: _201  and  _202
REMARK   83  A    between atoms: _205  and  _207
REMARK   84  A    between atoms: _207  and  _208
REMARK   85  A    between atoms: _207  and  _210
REMARK   86  A    between atoms: _210  and  _211
REMARK   87  A    between atoms: _213  and  _215
REMARK   88  A    between atoms: _215  and  _216
REMARK   89  A    between atoms: _215  and  _218
REMARK   90  A    between atoms: _218  and  _219
REMARK   91  A    between atoms: _219  and  _220
REMARK   92  A    between atoms: _222  and  _224
REMARK   93  A    between atoms: _224  and  _225
REMARK   94  A    between atoms: _224  and  _227
REMARK   95  A    between atoms: _227  and  _228
REMARK   96  A    between atoms: _231  and  _233
REMARK   97  A    between atoms: _233  and  _234
REMARK   98  A    between atoms: _233  and  _236
REMARK   99  A    between atoms: _236  and  _237
REMARK  100  A    between atoms: _240  and  _242
REMARK  101  A    between atoms: _242  and  _243
REMARK  102  A    between atoms: _242  and  _245
REMARK  103  A    between atoms: _245  and  _246
REMARK  104  A    between atoms: _249  and  _251
REMARK  105  A    between atoms: _251  and  _252
REMARK  106  A    between atoms: _251  and  _254
REMARK  107  A    between atoms: _254  and  _255
REMARK  108  A    between atoms: _257  and  _259
REMARK  109  A    between atoms: _259  and  _260
REMARK  110  A    between atoms: _262  and  _264
REMARK  111  A    between atoms: _264  and  _265
REMARK  112  A    between atoms: _264  and  _267
REMARK  113  A    between atoms: _267  and  _268
REMARK  114  A    between atoms: _270  and  _272
REMARK  115  A    between atoms: _272  and  _273
REMARK  116  A    between atoms: _272  and  _275
REMARK  117  A    between atoms: _275  and  _276
REMARK  118  A    between atoms: _279  and  _281
REMARK  119  A    between atoms: _281  and  _282
REMARK  120  A    between atoms: _281  and  _284
REMARK  121  A    between atoms: _284  and  _285
REMARK  122  A    between atoms: _285  and  _286
REMARK  123  A    between atoms: _286  and  _287
REMARK  124  A    between atoms: _287  and  _288
REMARK  125  A    between atoms: _292  and  _294
REMARK  126  A    between atoms: _294  and  _295
REMARK  127  A    between atoms: _294  and  _297
REMARK  128  A    between atoms: _297  and  _298
REMARK  129  A    between atoms: _298  and  _299
REMARK  130  A    between atoms: _302  and  _304
REMARK  131  A    between atoms: _304  and  _305
REMARK  132  A    between atoms: _304  and  _307
REMARK  133  A    between atoms: _307  and  _308
REMARK  134  A    between atoms: _314  and  _316
REMARK  135  A    between atoms: _316  and  _317
REMARK  136  A    between atoms: _316  and  _319
REMARK  137  A    between atoms: _322  and  _324
REMARK  138  A    between atoms: _324  and  _325
REMARK  139  A    between atoms: _324  and  _327
REMARK  140  A    between atoms: _327  and  _328
REMARK  141  A    between atoms: _328  and  _329
REMARK  142  A    between atoms: _329  and  _330
REMARK  143  A    between atoms: _339  and  _341
REMARK  144  A    between atoms: _341  and  _342
REMARK  145  A    between atoms: _341  and  _344
REMARK  146  A    between atoms: _344  and  _345
REMARK  147  A    between atoms: _348  and  _350
REMARK  148  A    between atoms: _350  and  _351
REMARK  149  A    between atoms: _350  and  _353
REMARK  150  A    between atoms: _353  and  _354
REMARK  151  A    between atoms: _357  and  _359
REMARK  152  A    between atoms: _359  and  _360
REMARK  153  A    between atoms: _363  and  _365
REMARK  154  A    between atoms: _365  and  _366
REMARK  155  A    between atoms: _368  and  _370
REMARK  156  A    between atoms: _370  and  _371
REMARK  157  A    between atoms: _370  and  _373
REMARK  158  A    between atoms: _376  and  _378
REMARK  159  A    between atoms: _378  and  _379
REMARK  160  A    between atoms: _378  and  _381
REMARK  161  A    between atoms: _381  and  _382
REMARK  162  A    between atoms: _387  and  _388
REMARK  163  A    between atoms: _390  and  _392
REMARK  164  A    between atoms: _392  and  _393
REMARK  165  A    between atoms: _392  and  _395
REMARK  166  A    between atoms: _395  and  _396
REMARK  167  A    between atoms: _399  and  _401
REMARK  168  A    between atoms: _401  and  _402
REMARK  169  A    between atoms: _401  and  _404
REMARK  170  A    between atoms: _404  and  _405
REMARK  171  A    between atoms: _408  and  _410
REMARK  172  A    between atoms: _410  and  _411
REMARK  173  A    between atoms: _410  and  _413
REMARK  174  A    between atoms: _413  and  _414
REMARK  175  A    between atoms: _414  and  _415
REMARK  176  A    between atoms: _418  and  _420
REMARK  177  A    between atoms: _420  and  _421
REMARK  178  A    between atoms: _420  and  _423
REMARK  179  A    between atoms: _423  and  _424
REMARK  180  A    between atoms: _426  and  _428
REMARK  181  A    between atoms: _428  and  _429
REMARK  182  A    between atoms: _428  and  _431
REMARK  183  A    between atoms: _431  and  _432
REMARK  184  A    between atoms: _435  and  _437
REMARK  185  A    between atoms: _437  and  _438
REMARK  186  A    between atoms: _437  and  _440
REMARK  187  A    between atoms: _440  and  _441
REMARK  188  A    between atoms: _441  and  _442
REMARK  189  A    between atoms: _444  and  _446
REMARK  190  A    between atoms: _446  and  _447
REMARK  191  A    between atoms: _446  and  _449
REMARK  192  A    between atoms: _449  and  _450
REMARK  193  A    between atoms: _455  and  _457
REMARK  194  A    between atoms: _457  and  _458
REMARK  195  A    between atoms: _457  and  _460
REMARK  196  A    between atoms: _460  and  _461
REMARK  197  A    between atoms: _461  and  _462
REMARK  198  A    between atoms: _465  and  _467
REMARK  199  A    between atoms: _467  and  _468
REMARK  200  A    between atoms: _467  and  _470
REMARK  201  A    between atoms: _470  and  _471
REMARK  202  A    between atoms: _476  and  _477
REMARK  203  A    between atoms: _479  and  _481
REMARK  204  A    between atoms: _481  and  _482
REMARK  205  A    between atoms: _481  and  _484
REMARK  206  A    between atoms: _484  and  _485
REMARK  207  A    between atoms: _488  and  _490
REMARK  208  A    between atoms: _490  and  _491
REMARK  209  A    between atoms: _490  and  _493
REMARK  210  A    between atoms: _493  and  _494
REMARK  211  A    between atoms: _494  and  _495
REMARK  212  A    between atoms: _495  and  _496
REMARK  213  A    between atoms: _496  and  _497
REMARK  214  A    between atoms: _501  and  _503
REMARK  215  A    between atoms: _503  and  _504
REMARK  216  A    between atoms: _506  and  _508
REMARK  217  A    between atoms: _508  and  _509
REMARK  218  A    between atoms: _508  and  _511
REMARK  219  A    between atoms: _511  and  _512
REMARK  220  A    between atoms: _517  and  _518
REMARK  221  A    between atoms: _520  and  _522
REMARK  222  A    between atoms: _522  and  _523
REMARK  223  A    between atoms: _525  and  _527
REMARK  224  A    between atoms: _527  and  _528
REMARK  225  A    between atoms: _527  and  _530
REMARK  226  A    between atoms: _530  and  _531
REMARK                            x       y       z     vdW  Elec       q    Type
REMARK                         _______ _______ _______ _____ _____    ______ ____
ROOT
ATOM      1  C   SER A   2      -8.072  34.915  60.238  0.00  0.00    +0.246 C 
ATOM      2  N   PRO A   3      -8.216  34.954  61.571  0.00  0.00    -0.272 N 
ATOM      3  CA  PRO A   3      -7.937  36.113  62.418  0.00  0.00    +0.152 C 
ATOM      4  CB  PRO A   3      -9.041  36.004  63.451  0.00  0.00    +0.031 C 
ATOM      5  CG  PRO A   3      -9.083  34.525  63.716  0.00  0.00    +0.024 C 
ATOM      6  CD  PRO A   3      -8.778  33.854  62.374  0.00  0.00    +0.094 C 
ATOM      7  O   SER A   2      -8.326  33.917  59.578  0.00  0.00    -0.273 OA
ENDROOT
BRANCH   3   8
ATOM      8  C   PRO A   3      -6.595  35.985  63.131  0.00  0.00    +0.241 C 
ATOM      9  O   PRO A   3      -6.453  36.522  64.221  0.00  0.00    -0.273 OA
ATOM     10  N   TYR A   4      -5.633  35.285  62.532  0.00  0.00    -0.298 N 
ATOM     11  H   TYR A   4      -5.803  34.894  61.583  0.00  0.00    +0.150 HD
BRANCH  10  12
ATOM     12  CA  TYR A   4      -4.347  35.055  63.179  0.00  0.00    +0.141 C 
BRANCH  12  13
ATOM     13  C   TYR A   4      -3.471  36.296  63.144  0.00  0.00    +0.227 C 
ATOM     14  O   TYR A   4      -2.941  36.724  64.169  0.00  0.00    -0.286 OA
ENDBRANCH  12  13
BRANCH  12  15
ATOM     15  CB  TYR A   4      -3.631  33.862  62.526  0.00  0.00    +0.054 C 
BRANCH  15  16
ATOM     16  CG  TYR A   4      -4.400  32.579  62.684  0.00  0.00    -0.020 A 
ATOM     17  CD2 TYR A   4      -4.244  31.804  63.818  0.00  0.00    -0.001 A 
ATOM     18  CE2 TYR A   4      -4.954  30.642  63.988  0.00  0.00    +0.036 A 
ATOM     19  CZ  TYR A   4      -5.840  30.235  63.018  0.00  0.00    +0.134 A 
ATOM     20  CE1 TYR A   4      -6.018  30.980  61.874  0.00  0.00    +0.036 A 
ATOM     21  CD1 TYR A   4      -5.301  32.155  61.714  0.00  0.00    -0.001 A 
BRANCH  19  22
ATOM     22  OH  TYR A   4      -6.529  29.062  63.208  0.00  0.00    -0.506 OA
ATOM     23  HH  TYR A   4      -6.274  28.668  64.080  0.00  0.00    +0.292 HD
ENDBRANCH  19  22
ENDBRANCH  15  16
ENDBRANCH  12  15
ENDBRANCH  10  12
ENDBRANCH   3   8
BRANCH   1  24
ATOM     24  CA  SER A   2      -7.593  36.186  59.550  0.00  0.00    +0.178 C 
BRANCH  24  27
ATOM     25  C   GLU A   1      -5.376  35.482  58.781  0.00  0.00    +0.238 C 
ATOM     26  O   GLU A   1      -4.983  35.280  59.915  0.00  0.00    -0.274 OA
ATOM     27  N   SER A   2      -6.612  35.899  58.501  0.00  0.00    -0.295 N 
ATOM     28  H   SER A   2      -6.888  36.024  57.506  0.00  0.00    +0.150 HD
BRANCH  25  29
ATOM     29  CA  GLU A   1      -4.428  35.269  57.617  0.00  0.00    +0.145 C 
BRANCH  29  30
ATOM     30  N   GLU A   1      -3.378  36.274  57.725  0.00  0.00    -0.238 NA
ATOM     31  H   GLU A   1      -3.196  36.716  58.648  0.00  0.00    +0.142 HD
ENDBRANCH  29  30
BRANCH  29  32
ATOM     32  CB  GLU A   1      -3.817  33.863  57.700  0.00  0.00    +0.038 C 
BRANCH  32  33
ATOM     33  CG  GLU A   1      -4.812  32.723  57.536  0.00  0.00    +0.116 C 
BRANCH  33  34
ATOM     34  CD  GLU A   1      -4.985  32.309  56.086  0.00  0.00    +0.365 C 
ATOM     35  OE2 GLU A   1      -4.095  31.610  55.558  0.00  0.00    -0.246 OA
ATOM     36  OE1 GLU A   1      -6.009  32.678  55.474  0.00  0.00    -0.246 OA
ENDBRANCH  33  34
ENDBRANCH  32  33
ENDBRANCH  29  32
ENDBRANCH  25  29
ENDBRANCH  24  27
BRANCH  24  37
ATOM     37  CB  SER A   2      -8.802  36.925  58.967  0.00  0.00    +0.166 C 
BRANCH  37  38
ATOM     38  OG  SER A   2      -8.409  38.123  58.330  0.00  0.00    -0.380 OA
ATOM     39  H   SER A   2      -9.208  38.578  57.964  0.00  0.00    +0.211 HD
ENDBRANCH  37  38
ENDBRANCH  24  37
ENDBRANCH   1  24
TORSDOF 15
REMARK  Name = ../refined-set-2016/3tza/3tza_pocket.pdb
REMARK  226 active torsions:
REMARK  status: ('A' for Active; 'I' for Inactive)
REMARK    1  A    between atoms: _1  and  _3
REMARK    2  A    between atoms: _3  and  _4
REMARK    3  A    between atoms: _3  and  _6
REMARK    4  A    between atoms: _6  and  _7
REMARK    5  A    between atoms: _10  and  _12
REMARK    6  A    between atoms: _12  and  _13
REMARK    7  A    between atoms: _12  and  _15
REMARK    8  A    between atoms: _15  and  _16
REMARK    9  A    between atoms: _16  and  _17
REMARK   10  A    between atoms: _20  and  _22
REMARK   11  A    between atoms: _22  and  _23
REMARK   12  A    between atoms: _22  and  _25
REMARK   13  A    between atoms: _25  and  _26
REMARK   14  A    between atoms: _29  and  _30
REMARK   15  A    between atoms: _35  and  _37
REMARK   16  A    between atoms: _37  and  _38
REMARK   17  A    between atoms: _37  and  _40
REMARK   18  A    between atoms: _40  and  _41
REMARK   19  A    between atoms: _46  and  _47
REMARK   20  A    between atoms: _49  and  _51
REMARK   21  A    between atoms: _51  and  _52
REMARK   22  A    between atoms: _51  and  _54
REMARK   23  A    between atoms: _54  and  _55
REMARK   24  A    between atoms: _55  and  _56
REMARK   25  A    between atoms: _56  and  _57
REMARK   26  A    between atoms: _57  and  _58
REMARK   27  A    between atoms: _62  and  _64
REMARK   28  A    between atoms: _64  and  _65
REMARK   29  A    between atoms: _64  and  _67
REMARK   30  A    between atoms: _67  and  _68
REMARK   31  A    between atoms: _73  and  _74
REMARK   32  A    between atoms: _76  and  _78
REMARK   33  A    between atoms: _78  and  _79
REMARK   34  A    between atoms: _81  and  _83
REMARK   35  A    between atoms: _83  and  _84
REMARK   36  A    between atoms: _87  and  _89
REMARK   37  A    between atoms: _89  and  _90
REMARK   38  A    between atoms: _89  and  _92
REMARK   39  A    between atoms: _92  and  _93
REMARK   40  A    between atoms: _93  and  _94
REMARK   41  A    between atoms: _96  and  _98
REMARK   42  A    between atoms: _98  and  _99
REMARK   43  A    between atoms: _98  and  _101
REMARK   44  A    between atoms: _104  and  _106
REMARK   45  A    between atoms: _106  and  _107
REMARK   46  A    between atoms: _111  and  _112
REMARK   47  A    between atoms: _117  and  _119
REMARK   48  A    between atoms: _119  and  _120
REMARK   49  A    between atoms: _119  and  _122
REMARK   50  A    between atoms: _122  and  _123
REMARK   51  A    between atoms: _126  and  _128
REMARK   52  A    between atoms: _128  and  _129
REMARK   53  A    between atoms: _128  and  _131
REMARK   54  A    between atoms: _131  and  _132
REMARK   55  A    between atoms: _135  and  _137
REMARK   56  A    between atoms: _137  and  _138
REMARK   57  A    between atoms: _137  and  _140
REMARK   58  A    between atoms: _140  and  _141
REMARK   59  A    between atoms: _144  and  _146
REMARK   60  A    between atoms: _146  and  _147
REMARK   61  A    between atoms: _146  and  _149
REMARK   62  A    between atoms: _149  and  _150
REMARK   63  A    between atoms: _153  and  _155
REMARK   64  A    between atoms: _155  and  _156
REMARK   65  A    between atoms: _155  and  _158
REMARK   66  A    between atoms: _158  and  _159
REMARK   67  A    between atoms: _159  and  _160
REMARK   68  A    between atoms: _160  and  _161
REMARK   69  A    between atoms: _170  and  _172
REMARK   70  A    between atoms: _172  and  _173
REMARK   71  A    between atoms: _172  and  _175
REMARK   72  A    between atoms: _175  and  _176
REMARK   73  A    between atoms: _182  and  _184
REMARK   74  A    between atoms: _184  and  _185
REMARK   75  A    between atoms: _184  and  _187
REMARK   76  A    between atoms: _187  and  _188
REMARK   77  A    between atoms: _191  and  _193
REMARK   78  A    between atoms: _193  and  _194
REMARK   79  A    between atoms: _196  and  _198
REMARK   80  A    between atoms: _198  and  _199
REMARK   81  A    between atoms: _198  and  _201
REMARK   82  A    between atoms: _201  and  _202
REMARK   83  A    between atoms: _205  and  _207
REMARK   84  A    between atoms: _207  and  _208
REMARK   85  A    between atoms: _207  and  _210
REMARK   86  A    between atoms: _210  and  _211
REMARK   87  A    between atoms: _213  and  _215
REMARK   88  A    between atoms: _215  and  _216
REMARK   89  A    between atoms: _215  and  _218
REMARK   90  A    between atoms: _218  and  _219
REMARK   91  A    between atoms: _219  and  _220
REMARK   92  A    between atoms: _222  and  _224
REMARK   93  A    between atoms: _224  and  _225
REMARK   94  A    between atoms: _224  and  _227
REMARK   95  A    between atoms: _227  and  _228
REMARK   96  A    between atoms: _231  and  _233
REMARK   97  A    between atoms: _233  and  _234
REMARK   98  A    between atoms: _233  and  _236
REMARK   99  A    between atoms: _236  and  _237
REMARK  100  A    between atoms: _240  and  _242
REMARK  101  A    between atoms: _242  and  _243
REMARK  102  A    between atoms: _242  and  _245
REMARK  103  A    between atoms: _245  and  _246
REMARK  104  A    between atoms: _249  and  _251
REMARK  105  A    between atoms: _251  and  _252
REMARK  106  A    between atoms: _251  and  _254
REMARK  107  A    between atoms: _254  and  _255
REMARK  108  A    between atoms: _257  and  _259
REMARK  109  A    between atoms: _259  and  _260
REMARK  110  A    between atoms: _262  and  _264
REMARK  111  A    between atoms: _264  and  _265
REMARK  112  A    between atoms: _264  and  _267
REMARK  113  A    between atoms: _267  and  _268
REMARK  114  A    between atoms: _270  and  _272
REMARK  115  A    between atoms: _272  and  _273
REMARK  116  A    between atoms: _272  and  _275
REMARK  117  A    between atoms: _275  and  _276
REMARK  118  A    between atoms: _279  and  _281
REMARK  119  A    between atoms: _281  and  _282
REMARK  120  A    between atoms: _281  and  _284
REMARK  121  A    between atoms: _284  and  _285
REMARK  122  A    between atoms: _285  and  _286
REMARK  123  A    between atoms: _286  and  _287
REMARK  124  A    between atoms: _287  and  _288
REMARK  125  A    between atoms: _292  and  _294
REMARK  126  A    between atoms: _294  and  _295
REMARK  127  A    between atoms: _294  and  _297
REMARK  128  A    between atoms: _297  and  _298
REMARK  129  A    between atoms: _298  and  _299
REMARK  130  A    between atoms: _302  and  _304
REMARK  131  A    between atoms: _304  and  _305
REMARK  132  A    between atoms: _304  and  _307
REMARK  133  A    between atoms: _307  and  _308
REMARK  134  A    between atoms: _314  and  _316
REMARK  135  A    between atoms: _316  and  _317
REMARK  136  A    between atoms: _316  and  _319
REMARK  137  A    between atoms: _322  and  _324
REMARK  138  A    between atoms: _324  and  _325
REMARK  139  A    between atoms: _324  and  _327
REMARK  140  A    between atoms: _327  and  _328
REMARK  141  A    between atoms: _328  and  _329
REMARK  142  A    between atoms: _329  and  _330
REMARK  143  A    between atoms: _339  and  _341
REMARK  144  A    between atoms: _341  and  _342
REMARK  145  A    between atoms: _341  and  _344
REMARK  146  A    between atoms: _344  and  _345
REMARK  147  A    between atoms: _348  and  _350
REMARK  148  A    between atoms: _350  and  _351
REMARK  149  A    between atoms: _350  and  _353
REMARK  150  A    between atoms: _353  and  _354
REMARK  151  A    between atoms: _357  and  _359
REMARK  152  A    between atoms: _359  and  _360
REMARK  153  A    between atoms: _363  and  _365
REMARK  154  A    between atoms: _365  and  _366
REMARK  155  A    between atoms: _368  and  _370
REMARK  156  A    between atoms: _370  and  _371
REMARK  157  A    between atoms: _370  and  _373
REMARK  158  A    between atoms: _376  and  _378
REMARK  159  A    between atoms: _378  and  _379
REMARK  160  A    between atoms: _378  and  _381
REMARK  161  A    between atoms: _381  and  _382
REMARK  162  A    between atoms: _387  and  _388
REMARK  163  A    between atoms: _390  and  _392
REMARK  164  A    between atoms: _392  and  _393
REMARK  165  A    between atoms: _392  and  _395
REMARK  166  A    between atoms: _395  and  _396
REMARK  167  A    between atoms: _399  and  _401
REMARK  168  A    between atoms: _401  and  _402
REMARK  169  A    between atoms: _401  and  _404
REMARK  170  A    between atoms: _404  and  _405
REMARK  171  A    between atoms: _408  and  _410
REMARK  172  A    between atoms: _410  and  _411
REMARK  173  A    between atoms: _410  and  _413
REMARK  174  A    between atoms: _413  and  _414
REMARK  175  A    between atoms: _414  and  _415
REMARK  176  A    between atoms: _418  and  _420
REMARK  177  A    between atoms: _420  and  _421
REMARK  178  A    between atoms: _420  and  _423
REMARK  179  A    between atoms: _423  and  _424
REMARK  180  A    between atoms: _426  and  _428
REMARK  181  A    between atoms: _428  and  _429
REMARK  182  A    between atoms: _428  and  _431
REMARK  183  A    between atoms: _431  and  _432
REMARK  184  A    between atoms: _435  and  _437
REMARK  185  A    between atoms: _437  and  _438
REMARK  186  A    between atoms: _437  and  _440
REMARK  187  A    between atoms: _440  and  _441
REMARK  188  A    between atoms: _441  and  _442
REMARK  189  A    between atoms: _444  and  _446
REMARK  190  A    between atoms: _446  and  _447
REMARK  191  A    between atoms: _446  and  _449
REMARK  192  A    between atoms: _449  and  _450
REMARK  193  A    between atoms: _455  and  _457
REMARK  194  A    between atoms: _457  and  _458
REMARK  195  A    between atoms: _457  and  _460
REMARK  196  A    between atoms: _460  and  _461
REMARK  197  A    between atoms: _461  and  _462
REMARK  198  A    between atoms: _465  and  _467
REMARK  199  A    between atoms: _467  and  _468
REMARK  200  A    between atoms: _467  and  _470
REMARK  201  A    between atoms: _470  and  _471
REMARK  202  A    between atoms: _476  and  _477
REMARK  203  A    between atoms: _479  and  _481
REMARK  204  A    between atoms: _481  and  _482
REMARK  205  A    between atoms: _481  and  _484
REMARK  206  A    between atoms: _484  and  _485
REMARK  207  A    between atoms: _488  and  _490
REMARK  208  A    between atoms: _490  and  _491
REMARK  209  A    between atoms: _490  and  _493
REMARK  210  A    between atoms: _493  and  _494
REMARK  211  A    between atoms: _494  and  _495
REMARK  212  A    between atoms: _495  and  _496
REMARK  213  A    between atoms: _496  and  _497
REMARK  214  A    between atoms: _501  and  _503
REMARK  215  A    between atoms: _503  and  _504
REMARK  216  A    between atoms: _506  and  _508
REMARK  217  A    between atoms: _508  and  _509
REMARK  218  A    between atoms: _508  and  _511
REMARK  219  A    between atoms: _511  and  _512
REMARK  220  A    between atoms: _517  and  _518
REMARK  221  A    between atoms: _520  and  _522
REMARK  222  A    between atoms: _522  and  _523
REMARK  223  A    between atoms: _525  and  _527
REMARK  224  A    between atoms: _527  and  _528
REMARK  225  A    between atoms: _527  and  _530
REMARK  226  A    between atoms: _530  and  _531
REMARK                            x       y       z     vdW  Elec       q    Type
REMARK                         _______ _______ _______ _____ _____    ______ ____
ROOT
ATOM      1  CA  TYR A   2       3.282  28.237  54.639  0.00  0.00    +0.153 C 
ENDROOT
BRANCH   1   4
ATOM      2  C   LYS A   1       3.617  29.998  53.007  0.00  0.00    +0.238 C 
ATOM      3  O   LYS A   1       4.383  30.609  53.753  0.00  0.00    -0.274 OA
ATOM      4  N   TYR A   2       3.037  28.853  53.348  0.00  0.00    -0.297 N 
ATOM      5  H   TYR A   2       2.394  28.388  52.676  0.00  0.00    +0.150 HD
BRANCH   2   6
ATOM      6  CA  LYS A   1       3.280  30.534  51.628  0.00  0.00    +0.145 C 
BRANCH   6   7
ATOM      7  N   LYS A   1       3.520  31.973  51.587  0.00  0.00    -0.238 NA
ATOM      8  H   LYS A   1       4.477  32.333  51.776  0.00  0.00    +0.142 HD
ENDBRANCH   6   7
BRANCH   6   9
ATOM      9  CB  LYS A   1       4.131  29.806  50.570  0.00  0.00    +0.026 C 
BRANCH   9  10
ATOM     10  CG  LYS A   1       3.783  30.146  49.123  0.00  0.00    -0.000 C 
BRANCH  10  11
ATOM     11  CD  LYS A   1       2.463  29.514  48.718  0.00  0.00    -0.024 C 
BRANCH  11  12
ATOM     12  CE  LYS A   1       2.136  29.794  47.264  0.00  0.00    -0.086 C 
BRANCH  12  13
ATOM     13  NZ  LYS A   1       0.846  29.164  46.866  0.00  0.00    +0.380 N 
ATOM     14  HZ1 LYS A   1       0.079  29.544  47.457  0.00  0.00    -0.089 HD
ATOM     15  HZ2 LYS A   1       0.909  28.134  46.998  0.00  0.00    -0.089 HD
ATOM     16  HZ3 LYS A   1       0.652  29.375  45.866  0.00  0.00    -0.089 HD
ENDBRANCH  12  13
ENDBRANCH  11  12
ENDBRANCH  10  11
ENDBRANCH   9  10
ENDBRANCH   6   9
ENDBRANCH   2   6
ENDBRANCH   1   4
BRANCH   1  17
ATOM     17  C   TYR A   2       4.585  27.448  54.653  0.00  0.00    +0.241 C 
ATOM     18  O   TYR A   2       5.477  27.719  55.456  0.00  0.00    -0.273 OA
ATOM     19  N   GLY A   3       4.716  26.486  53.752  0.00  0.00    -0.295 N 
ATOM     20  H   GLY A   3       3.916  26.231  53.138  0.00  0.00    +0.150 HD
BRANCH  19  21
ATOM     21  CA  GLY A   3       5.978  25.792  53.627  0.00  0.00    +0.176 C 
BRANCH  21  22
ATOM     22  C   GLY A   3       5.845  24.426  52.998  0.00  0.00    +0.243 C 
ATOM     23  O   GLY A   3       5.306  23.502  53.604  0.00  0.00    -0.273 OA
ATOM     24  N   ALA A   4       6.340  24.305  51.774  0.00  0.00    -0.298 N 
ATOM     25  H   ALA A   4       6.696  25.152  51.287  0.00  0.00    +0.150 HD
BRANCH  24  26
ATOM     26  CA  ALA A   4       6.399  23.017  51.090  0.00  0.00    +0.137 C 
ATOM     27  CB  ALA A   4       5.171  22.806  50.211  0.00  0.00    +0.030 C 
BRANCH  26  28
ATOM     28  C   ALA A   4       7.681  22.936  50.270  0.00  0.00    +0.227 C 
ATOM     29  O   ALA A   4       8.231  23.958  49.852  0.00  0.00    -0.286 OA
ENDBRANCH  26  28
ENDBRANCH  24  26
ENDBRANCH  21  22
ENDBRANCH  19  21
ENDBRANCH   1  17
BRANCH   1  30
ATOM     30  CB  TYR A   2       2.075  27.392  55.063  0.00  0.00    +0.055 C 
BRANCH  30  31
ATOM     31  CG  TYR A   2       0.936  28.260  55.561  0.00  0.00    -0.020 A 
ATOM     32  CD2 TYR A   2       0.849  28.612  56.899  0.00  0.00    -0.001 A 
ATOM     33  CE2 TYR A   2      -0.171  29.421  57.364  0.00  0.00    +0.036 A 
ATOM     34  CZ  TYR A   2      -1.120  29.894  56.485  0.00  0.00    +0.134 A 
ATOM     35  CE1 TYR A   2      -1.059  29.574  55.145  0.00  0.00    +0.036 A 
ATOM     36  CD1 TYR A   2      -0.030  28.758  54.686  0.00  0.00    -0.001 A 
BRANCH  34  37
ATOM     37  OH  TYR A   2      -2.132  30.685  56.970  0.00  0.00    -0.506 OA
ATOM     38  HH  TYR A   2      -3.003  30.249  56.793  0.00  0.00    +0.292 HD
ENDBRANCH  34  37
ENDBRANCH  30  31
ENDBRANCH   1  30
TORSDOF 16
REMARK  Name = ../refined-set-2016/3tza/3tza_pocket.pdb
REMARK  226 active torsions:
REMARK  status: ('A' for Active; 'I' for Inactive)
REMARK    1  A    between atoms: _1  and  _3
REMARK    2  A    between atoms: _3  and  _4
REMARK    3  A    between atoms: _3  and  _6
REMARK    4  A    between atoms: _6  and  _7
REMARK    5  A    between atoms: _10  and  _12
REMARK    6  A    between atoms: _12  and  _13
REMARK    7  A    between atoms: _12  and  _15
REMARK    8  A    between atoms: _15  and  _16
REMARK    9  A    between atoms: _16  and  _17
REMARK   10  A    between atoms: _20  and  _22
REMARK   11  A    between atoms: _22  and  _23
REMARK   12  A    between atoms: _22  and  _25
REMARK   13  A    between atoms: _25  and  _26
REMARK   14  A    between atoms: _29  and  _30
REMARK   15  A    between atoms: _35  and  _37
REMARK   16  A    between atoms: _37  and  _38
REMARK   17  A    between atoms: _37  and  _40
REMARK   18  A    between atoms: _40  and  _41
REMARK   19  A    between atoms: _46  and  _47
REMARK   20  A    between atoms: _49  and  _51
REMARK   21  A    between atoms: _51  and  _52
REMARK   22  A    between atoms: _51  and  _54
REMARK   23  A    between atoms: _54  and  _55
REMARK   24  A    between atoms: _55  and  _56
REMARK   25  A    between atoms: _56  and  _57
REMARK   26  A    between atoms: _57  and  _58
REMARK   27  A    between atoms: _62  and  _64
REMARK   28  A    between atoms: _64  and  _65
REMARK   29  A    between atoms: _64  and  _67
REMARK   30  A    between atoms: _67  and  _68
REMARK   31  A    between atoms: _73  and  _74
REMARK   32  A    between atoms: _76  and  _78
REMARK   33  A    between atoms: _78  and  _79
REMARK   34  A    between atoms: _81  and  _83
REMARK   35  A    between atoms: _83  and  _84
REMARK   36  A    between atoms: _87  and  _89
REMARK   37  A    between atoms: _89  and  _90
REMARK   38  A    between atoms: _89  and  _92
REMARK   39  A    between atoms: _92  and  _93
REMARK   40  A    between atoms: _93  and  _94
REMARK   41  A    between atoms: _96  and  _98
REMARK   42  A    between atoms: _98  and  _99
REMARK   43  A    between atoms: _98  and  _101
REMARK   44  A    between atoms: _104  and  _106
REMARK   45  A    between atoms: _106  and  _107
REMARK   46  A    between atoms: _111  and  _112
REMARK   47  A    between atoms: _117  and  _119
REMARK   48  A    between atoms: _119  and  _120
REMARK   49  A    between atoms: _119  and  _122
REMARK   50  A    between atoms: _122  and  _123
REMARK   51  A    between atoms: _126  and  _128
REMARK   52  A    between atoms: _128  and  _129
REMARK   53  A    between atoms: _128  and  _131
REMARK   54  A    between atoms: _131  and  _132
REMARK   55  A    between atoms: _135  and  _137
REMARK   56  A    between atoms: _137  and  _138
REMARK   57  A    between atoms: _137  and  _140
REMARK   58  A    between atoms: _140  and  _141
REMARK   59  A    between atoms: _144  and  _146
REMARK   60  A    between atoms: _146  and  _147
REMARK   61  A    between atoms: _146  and  _149
REMARK   62  A    between atoms: _149  and  _150
REMARK   63  A    between atoms: _153  and  _155
REMARK   64  A    between atoms: _155  and  _156
REMARK   65  A    between atoms: _155  and  _158
REMARK   66  A    between atoms: _158  and  _159
REMARK   67  A    between atoms: _159  and  _160
REMARK   68  A    between atoms: _160  and  _161
REMARK   69  A    between atoms: _170  and  _172
REMARK   70  A    between atoms: _172  and  _173
REMARK   71  A    between atoms: _172  and  _175
REMARK   72  A    between atoms: _175  and  _176
REMARK   73  A    between atoms: _182  and  _184
REMARK   74  A    between atoms: _184  and  _185
REMARK   75  A    between atoms: _184  and  _187
REMARK   76  A    between atoms: _187  and  _188
REMARK   77  A    between atoms: _191  and  _193
REMARK   78  A    between atoms: _193  and  _194
REMARK   79  A    between atoms: _196  and  _198
REMARK   80  A    between atoms: _198  and  _199
REMARK   81  A    between atoms: _198  and  _201
REMARK   82  A    between atoms: _201  and  _202
REMARK   83  A    between atoms: _205  and  _207
REMARK   84  A    between atoms: _207  and  _208
REMARK   85  A    between atoms: _207  and  _210
REMARK   86  A    between atoms: _210  and  _211
REMARK   87  A    between atoms: _213  and  _215
REMARK   88  A    between atoms: _215  and  _216
REMARK   89  A    between atoms: _215  and  _218
REMARK   90  A    between atoms: _218  and  _219
REMARK   91  A    between atoms: _219  and  _220
REMARK   92  A    between atoms: _222  and  _224
REMARK   93  A    between atoms: _224  and  _225
REMARK   94  A    between atoms: _224  and  _227
REMARK   95  A    between atoms: _227  and  _228
REMARK   96  A    between atoms: _231  and  _233
REMARK   97  A    between atoms: _233  and  _234
REMARK   98  A    between atoms: _233  and  _236
REMARK   99  A    between atoms: _236  and  _237
REMARK  100  A    between atoms: _240  and  _242
REMARK  101  A    between atoms: _242  and  _243
REMARK  102  A    between atoms: _242  and  _245
REMARK  103  A    between atoms: _245  and  _246
REMARK  104  A    between atoms: _249  and  _251
REMARK  105  A    between atoms: _251  and  _252
REMARK  106  A    between atoms: _251  and  _254
REMARK  107  A    between atoms: _254  and  _255
REMARK  108  A    between atoms: _257  and  _259
REMARK  109  A    between atoms: _259  and  _260
REMARK  110  A    between atoms: _262  and  _264
REMARK  111  A    between atoms: _264  and  _265
REMARK  112  A    between atoms: _264  and  _267
REMARK  113  A    between atoms: _267  and  _268
REMARK  114  A    between atoms: _270  and  _272
REMARK  115  A    between atoms: _272  and  _273
REMARK  116  A    between atoms: _272  and  _275
REMARK  117  A    between atoms: _275  and  _276
REMARK  118  A    between atoms: _279  and  _281
REMARK  119  A    between atoms: _281  and  _282
REMARK  120  A    between atoms: _281  and  _284
REMARK  121  A    between atoms: _284  and  _285
REMARK  122  A    between atoms: _285  and  _286
REMARK  123  A    between atoms: _286  and  _287
REMARK  124  A    between atoms: _287  and  _288
REMARK  125  A    between atoms: _292  and  _294
REMARK  126  A    between atoms: _294  and  _295
REMARK  127  A    between atoms: _294  and  _297
REMARK  128  A    between atoms: _297  and  _298
REMARK  129  A    between atoms: _298  and  _299
REMARK  130  A    between atoms: _302  and  _304
REMARK  131  A    between atoms: _304  and  _305
REMARK  132  A    between atoms: _304  and  _307
REMARK  133  A    between atoms: _307  and  _308
REMARK  134  A    between atoms: _314  and  _316
REMARK  135  A    between atoms: _316  and  _317
REMARK  136  A    between atoms: _316  and  _319
REMARK  137  A    between atoms: _322  and  _324
REMARK  138  A    between atoms: _324  and  _325
REMARK  139  A    between atoms: _324  and  _327
REMARK  140  A    between atoms: _327  and  _328
REMARK  141  A    between atoms: _328  and  _329
REMARK  142  A    between atoms: _329  and  _330
REMARK  143  A    between atoms: _339  and  _341
REMARK  144  A    between atoms: _341  and  _342
REMARK  145  A    between atoms: _341  and  _344
REMARK  146  A    between atoms: _344  and  _345
REMARK  147  A    between atoms: _348  and  _350
REMARK  148  A    between atoms: _350  and  _351
REMARK  149  A    between atoms: _350  and  _353
REMARK  150  A    between atoms: _353  and  _354
REMARK  151  A    between atoms: _357  and  _359
REMARK  152  A    between atoms: _359  and  _360
REMARK  153  A    between atoms: _363  and  _365
REMARK  154  A    between atoms: _365  and  _366
REMARK  155  A    between atoms: _368  and  _370
REMARK  156  A    between atoms: _370  and  _371
REMARK  157  A    between atoms: _370  and  _373
REMARK  158  A    between atoms: _376  and  _378
REMARK  159  A    between atoms: _378  and  _379
REMARK  160  A    between atoms: _378  and  _381
REMARK  161  A    between atoms: _381  and  _382
REMARK  162  A    between atoms: _387  and  _388
REMARK  163  A    between atoms: _390  and  _392
REMARK  164  A    between atoms: _392  and  _393
REMARK  165  A    between atoms: _392  and  _395
REMARK  166  A    between atoms: _395  and  _396
REMARK  167  A    between atoms: _399  and  _401
REMARK  168  A    between atoms: _401  and  _402
REMARK  169  A    between atoms: _401  and  _404
REMARK  170  A    between atoms: _404  and  _405
REMARK  171  A    between atoms: _408  and  _410
REMARK  172  A    between atoms: _410  and  _411
REMARK  173  A    between atoms: _410  and  _413
REMARK  174  A    between atoms: _413  and  _414
REMARK  175  A    between atoms: _414  and  _415
REMARK  176  A    between atoms: _418  and  _420
REMARK  177  A    between atoms: _420  and  _421
REMARK  178  A    between atoms: _420  and  _423
REMARK  179  A    between atoms: _423  and  _424
REMARK  180  A    between atoms: _426  and  _428
REMARK  181  A    between atoms: _428  and  _429
REMARK  182  A    between atoms: _428  and  _431
REMARK  183  A    between atoms: _431  and  _432
REMARK  184  A    between atoms: _435  and  _437
REMARK  185  A    between atoms: _437  and  _438
REMARK  186  A    between atoms: _437  and  _440
REMARK  187  A    between atoms: _440  and  _441
REMARK  188  A    between atoms: _441  and  _442
REMARK  189  A    between atoms: _444  and  _446
REMARK  190  A    between atoms: _446  and  _447
REMARK  191  A    between atoms: _446  and  _449
REMARK  192  A    between atoms: _449  and  _450
REMARK  193  A    between atoms: _455  and  _457
REMARK  194  A    between atoms: _457  and  _458
REMARK  195  A    between atoms: _457  and  _460
REMARK  196  A    between atoms: _460  and  _461
REMARK  197  A    between atoms: _461  and  _462
REMARK  198  A    between atoms: _465  and  _467
REMARK  199  A    between atoms: _467  and  _468
REMARK  200  A    between atoms: _467  and  _470
REMARK  201  A    between atoms: _470  and  _471
REMARK  202  A    between atoms: _476  and  _477
REMARK  203  A    between atoms: _479  and  _481
REMARK  204  A    between atoms: _481  and  _482
REMARK  205  A    between atoms: _481  and  _484
REMARK  206  A    between atoms: _484  and  _485
REMARK  207  A    between atoms: _488  and  _490
REMARK  208  A    between atoms: _490  and  _491
REMARK  209  A    between atoms: _490  and  _493
REMARK  210  A    between atoms: _493  and  _494
REMARK  211  A    between atoms: _494  and  _495
REMARK  212  A    between atoms: _495  and  _496
REMARK  213  A    between atoms: _496  and  _497
REMARK  214  A    between atoms: _501  and  _503
REMARK  215  A    between atoms: _503  and  _504
REMARK  216  A    between atoms: _506  and  _508
REMARK  217  A    between atoms: _508  and  _509
REMARK  218  A    between atoms: _508  and  _511
REMARK  219  A    between atoms: _511  and  _512
REMARK  220  A    between atoms: _517  and  _518
REMARK  221  A    between atoms: _520  and  _522
REMARK  222  A    between atoms: _522  and  _523
REMARK  223  A    between atoms: _525  and  _527
REMARK  224  A    between atoms: _527  and  _528
REMARK  225  A    between atoms: _527  and  _530
REMARK  226  A    between atoms: _530  and  _531
REMARK                            x       y       z     vdW  Elec       q    Type
REMARK                         _______ _______ _______ _____ _____    ______ ____
ROOT
ATOM      1  C   MET A   1       8.745  29.150  56.757  0.00  0.00    +0.238 C 
ATOM      2  O   MET A   1       9.778  29.381  57.390  0.00  0.00    -0.274 OA
ATOM      3  N   VAL A   2       8.410  27.929  56.364  0.00  0.00    -0.298 N 
ATOM      4  H   VAL A   2       7.489  27.758  55.912  0.00  0.00    +0.150 HD
ENDROOT
BRANCH   1   5
ATOM      5  CA  MET A   1       7.776  30.288  56.406  0.00  0.00    +0.146 C 
BRANCH   5   6
ATOM      6  N   MET A   1       7.168  30.115  55.090  0.00  0.00    -0.238 NA
ATOM      7  H   MET A   1       6.138  29.985  55.024  0.00  0.00    +0.142 HD
ENDBRANCH   5   6
BRANCH   5   8
ATOM      8  CB  MET A   1       6.704  30.431  57.490  0.00  0.00    +0.038 C 
BRANCH   8   9
ATOM      9  CG  MET A   1       5.843  31.694  57.331  0.00  0.00    +0.060 C 
BRANCH   9  10
ATOM     10  SD  MET A   1       4.449  31.784  58.480  0.00  0.00    -0.139 S 
ATOM     11  CE  MET A   1       3.327  30.628  57.710  0.00  0.00    +0.069 C 
ENDBRANCH   9  10
ENDBRANCH   8   9
ENDBRANCH   5   8
ENDBRANCH   1   5
BRANCH   3  12
ATOM     12  CA  VAL A   2       9.348  26.822  56.572  0.00  0.00    +0.137 C 
BRANCH  12  13
ATOM     13  CB  VAL A   2       8.811  25.494  56.020  0.00  0.00    +0.026 C 
ATOM     14  CG2 VAL A   2       7.572  25.035  56.828  0.00  0.00    +0.002 C 
ATOM     15  CG1 VAL A   2       9.911  24.443  56.037  0.00  0.00    +0.002 C 
ENDBRANCH  12  13
BRANCH  12  16
ATOM     16  C   VAL A   2      10.681  27.159  55.901  0.00  0.00    +0.227 C 
ATOM     17  O   VAL A   2      11.751  26.994  56.492  0.00  0.00    -0.286 OA
ENDBRANCH  12  16
ENDBRANCH   3  12
TORSDOF 8
REMARK  Name = ../refined-set-2016/3tza/3tza_pocket.pdb
REMARK  226 active torsions:
REMARK  status: ('A' for Active; 'I' for Inactive)
REMARK    1  A    between atoms: _1  and  _3
REMARK    2  A    between atoms: _3  and  _4
REMARK    3  A    between atoms: _3  and  _6
REMARK    4  A    between atoms: _6  and  _7
REMARK    5  A    between atoms: _10  and  _12
REMARK    6  A    between atoms: _12  and  _13
REMARK    7  A    between atoms: _12  and  _15
REMARK    8  A    between atoms: _15  and  _16
REMARK    9  A    between atoms: _16  and  _17
REMARK   10  A    between atoms: _20  and  _22
REMARK   11  A    between atoms: _22  and  _23
REMARK   12  A    between atoms: _22  and  _25
REMARK   13  A    between atoms: _25  and  _26
REMARK   14  A    between atoms: _29  and  _30
REMARK   15  A    between atoms: _35  and  _37
REMARK   16  A    between atoms: _37  and  _38
REMARK   17  A    between atoms: _37  and  _40
REMARK   18  A    between atoms: _40  and  _41
REMARK   19  A    between atoms: _46  and  _47
REMARK   20  A    between atoms: _49  and  _51
REMARK   21  A    between atoms: _51  and  _52
REMARK   22  A    between atoms: _51  and  _54
REMARK   23  A    between atoms: _54  and  _55
REMARK   24  A    between atoms: _55  and  _56
REMARK   25  A    between atoms: _56  and  _57
REMARK   26  A    between atoms: _57  and  _58
REMARK   27  A    between atoms: _62  and  _64
REMARK   28  A    between atoms: _64  and  _65
REMARK   29  A    between atoms: _64  and  _67
REMARK   30  A    between atoms: _67  and  _68
REMARK   31  A    between atoms: _73  and  _74
REMARK   32  A    between atoms: _76  and  _78
REMARK   33  A    between atoms: _78  and  _79
REMARK   34  A    between atoms: _81  and  _83
REMARK   35  A    between atoms: _83  and  _84
REMARK   36  A    between atoms: _87  and  _89
REMARK   37  A    between atoms: _89  and  _90
REMARK   38  A    between atoms: _89  and  _92
REMARK   39  A    between atoms: _92  and  _93
REMARK   40  A    between atoms: _93  and  _94
REMARK   41  A    between atoms: _96  and  _98
REMARK   42  A    between atoms: _98  and  _99
REMARK   43  A    between atoms: _98  and  _101
REMARK   44  A    between atoms: _104  and  _106
REMARK   45  A    between atoms: _106  and  _107
REMARK   46  A    between atoms: _111  and  _112
REMARK   47  A    between atoms: _117  and  _119
REMARK   48  A    between atoms: _119  and  _120
REMARK   49  A    between atoms: _119  and  _122
REMARK   50  A    between atoms: _122  and  _123
REMARK   51  A    between atoms: _126  and  _128
REMARK   52  A    between atoms: _128  and  _129
REMARK   53  A    between atoms: _128  and  _131
REMARK   54  A    between atoms: _131  and  _132
REMARK   55  A    between atoms: _135  and  _137
REMARK   56  A    between atoms: _137  and  _138
REMARK   57  A    between atoms: _137  and  _140
REMARK   58  A    between atoms: _140  and  _141
REMARK   59  A    between atoms: _144  and  _146
REMARK   60  A    between atoms: _146  and  _147
REMARK   61  A    between atoms: _146  and  _149
REMARK   62  A    between atoms: _149  and  _150
REMARK   63  A    between atoms: _153  and  _155
REMARK   64  A    between atoms: _155  and  _156
REMARK   65  A    between atoms: _155  and  _158
REMARK   66  A    between atoms: _158  and  _159
REMARK   67  A    between atoms: _159  and  _160
REMARK   68  A    between atoms: _160  and  _161
REMARK   69  A    between atoms: _170  and  _172
REMARK   70  A    between atoms: _172  and  _173
REMARK   71  A    between atoms: _172  and  _175
REMARK   72  A    between atoms: _175  and  _176
REMARK   73  A    between atoms: _182  and  _184
REMARK   74  A    between atoms: _184  and  _185
REMARK   75  A    between atoms: _184  and  _187
REMARK   76  A    between atoms: _187  and  _188
REMARK   77  A    between atoms: _191  and  _193
REMARK   78  A    between atoms: _193  and  _194
REMARK   79  A    between atoms: _196  and  _198
REMARK   80  A    between atoms: _198  and  _199
REMARK   81  A    between atoms: _198  and  _201
REMARK   82  A    between atoms: _201  and  _202
REMARK   83  A    between atoms: _205  and  _207
REMARK   84  A    between atoms: _207  and  _208
REMARK   85  A    between atoms: _207  and  _210
REMARK   86  A    between atoms: _210  and  _211
REMARK   87  A    between atoms: _213  and  _215
REMARK   88  A    between atoms: _215  and  _216
REMARK   89  A    between atoms: _215  and  _218
REMARK   90  A    between atoms: _218  and  _219
REMARK   91  A    between atoms: _219  and  _220
REMARK   92  A    between atoms: _222  and  _224
REMARK   93  A    between atoms: _224  and  _225
REMARK   94  A    between atoms: _224  and  _227
REMARK   95  A    between atoms: _227  and  _228
REMARK   96  A    between atoms: _231  and  _233
REMARK   97  A    between atoms: _233  and  _234
REMARK   98  A    between atoms: _233  and  _236
REMARK   99  A    between atoms: _236  and  _237
REMARK  100  A    between atoms: _240  and  _242
REMARK  101  A    between atoms: _242  and  _243
REMARK  102  A    between atoms: _242  and  _245
REMARK  103  A    between atoms: _245  and  _246
REMARK  104  A    between atoms: _249  and  _251
REMARK  105  A    between atoms: _251  and  _252
REMARK  106  A    between atoms: _251  and  _254
REMARK  107  A    between atoms: _254  and  _255
REMARK  108  A    between atoms: _257  and  _259
REMARK  109  A    between atoms: _259  and  _260
REMARK  110  A    between atoms: _262  and  _264
REMARK  111  A    between atoms: _264  and  _265
REMARK  112  A    between atoms: _264  and  _267
REMARK  113  A    between atoms: _267  and  _268
REMARK  114  A    between atoms: _270  and  _272
REMARK  115  A    between atoms: _272  and  _273
REMARK  116  A    between atoms: _272  and  _275
REMARK  117  A    between atoms: _275  and  _276
REMARK  118  A    between atoms: _279  and  _281
REMARK  119  A    between atoms: _281  and  _282
REMARK  120  A    between atoms: _281  and  _284
REMARK  121  A    between atoms: _284  and  _285
REMARK  122  A    between atoms: _285  and  _286
REMARK  123  A    between atoms: _286  and  _287
REMARK  124  A    between atoms: _287  and  _288
REMARK  125  A    between atoms: _292  and  _294
REMARK  126  A    between atoms: _294  and  _295
REMARK  127  A    between atoms: _294  and  _297
REMARK  128  A    between atoms: _297  and  _298
REMARK  129  A    between atoms: _298  and  _299
REMARK  130  A    between atoms: _302  and  _304
REMARK  131  A    between atoms: _304  and  _305
REMARK  132  A    between atoms: _304  and  _307
REMARK  133  A    between atoms: _307  and  _308
REMARK  134  A    between atoms: _314  and  _316
REMARK  135  A    between atoms: _316  and  _317
REMARK  136  A    between atoms: _316  and  _319
REMARK  137  A    between atoms: _322  and  _324
REMARK  138  A    between atoms: _324  and  _325
REMARK  139  A    between atoms: _324  and  _327
REMARK  140  A    between atoms: _327  and  _328
REMARK  141  A    between atoms: _328  and  _329
REMARK  142  A    between atoms: _329  and  _330
REMARK  143  A    between atoms: _339  and  _341
REMARK  144  A    between atoms: _341  and  _342
REMARK  145  A    between atoms: _341  and  _344
REMARK  146  A    between atoms: _344  and  _345
REMARK  147  A    between atoms: _348  and  _350
REMARK  148  A    between atoms: _350  and  _351
REMARK  149  A    between atoms: _350  and  _353
REMARK  150  A    between atoms: _353  and  _354
REMARK  151  A    between atoms: _357  and  _359
REMARK  152  A    between atoms: _359  and  _360
REMARK  153  A    between atoms: _363  and  _365
REMARK  154  A    between atoms: _365  and  _366
REMARK  155  A    between atoms: _368  and  _370
REMARK  156  A    between atoms: _370  and  _371
REMARK  157  A    between atoms: _370  and  _373
REMARK  158  A    between atoms: _376  and  _378
REMARK  159  A    between atoms: _378  and  _379
REMARK  160  A    between atoms: _378  and  _381
REMARK  161  A    between atoms: _381  and  _382
REMARK  162  A    between atoms: _387  and  _388
REMARK  163  A    between atoms: _390  and  _392
REMARK  164  A    between atoms: _392  and  _393
REMARK  165  A    between atoms: _392  and  _395
REMARK  166  A    between atoms: _395  and  _396
REMARK  167  A    between atoms: _399  and  _401
REMARK  168  A    between atoms: _401  and  _402
REMARK  169  A    between atoms: _401  and  _404
REMARK  170  A    between atoms: _404  and  _405
REMARK  171  A    between atoms: _408  and  _410
REMARK  172  A    between atoms: _410  and  _411
REMARK  173  A    between atoms: _410  and  _413
REMARK  174  A    between atoms: _413  and  _414
REMARK  175  A    between atoms: _414  and  _415
REMARK  176  A    between atoms: _418  and  _420
REMARK  177  A    between atoms: _420  and  _421
REMARK  178  A    between atoms: _420  and  _423
REMARK  179  A    between atoms: _423  and  _424
REMARK  180  A    between atoms: _426  and  _428
REMARK  181  A    between atoms: _428  and  _429
REMARK  182  A    between atoms: _428  and  _431
REMARK  183  A    between atoms: _431  and  _432
REMARK  184  A    between atoms: _435  and  _437
REMARK  185  A    between atoms: _437  and  _438
REMARK  186  A    between atoms: _437  and  _440
REMARK  187  A    between atoms: _440  and  _441
REMARK  188  A    between atoms: _441  and  _442
REMARK  189  A    between atoms: _444  and  _446
REMARK  190  A    between atoms: _446  and  _447
REMARK  191  A    between atoms: _446  and  _449
REMARK  192  A    between atoms: _449  and  _450
REMARK  193  A    between atoms: _455  and  _457
REMARK  194  A    between atoms: _457  and  _458
REMARK  195  A    between atoms: _457  and  _460
REMARK  196  A    between atoms: _460  and  _461
REMARK  197  A    between atoms: _461  and  _462
REMARK  198  A    between atoms: _465  and  _467
REMARK  199  A    between atoms: _467  and  _468
REMARK  200  A    between atoms: _467  and  _470
REMARK  201  A    between atoms: _470  and  _471
REMARK  202  A    between atoms: _476  and  _477
REMARK  203  A    between atoms: _479  and  _481
REMARK  204  A    between atoms: _481  and  _482
REMARK  205  A    between atoms: _481  and  _484
REMARK  206  A    between atoms: _484  and  _485
REMARK  207  A    between atoms: _488  and  _490
REMARK  208  A    between atoms: _490  and  _491
REMARK  209  A    between atoms: _490  and  _493
REMARK  210  A    between atoms: _493  and  _494
REMARK  211  A    between atoms: _494  and  _495
REMARK  212  A    between atoms: _495  and  _496
REMARK  213  A    between atoms: _496  and  _497
REMARK  214  A    between atoms: _501  and  _503
REMARK  215  A    between atoms: _503  and  _504
REMARK  216  A    between atoms: _506  and  _508
REMARK  217  A    between atoms: _508  and  _509
REMARK  218  A    between atoms: _508  and  _511
REMARK  219  A    between atoms: _511  and  _512
REMARK  220  A    between atoms: _517  and  _518
REMARK  221  A    between atoms: _520  and  _522
REMARK  222  A    between atoms: _522  and  _523
REMARK  223  A    between atoms: _525  and  _527
REMARK  224  A    between atoms: _527  and  _528
REMARK  225  A    between atoms: _527  and  _530
REMARK  226  A    between atoms: _530  and  _531
REMARK                            x       y       z     vdW  Elec       q    Type
REMARK                         _______ _______ _______ _____ _____    ______ ____
ROOT
ATOM      1  CA  THR A   4       0.619  22.560  60.859  0.00  0.00    +0.176 C 
ENDROOT
BRANCH   1   4
ATOM      2  C   LEU A   3       1.341  24.855  61.243  0.00  0.00    +0.241 C 
ATOM      3  O   LEU A   3       1.704  24.605  62.386  0.00  0.00    -0.273 OA
ATOM      4  N   THR A   4       0.842  23.935  60.427  0.00  0.00    -0.295 N 
ATOM      5  H   THR A   4       0.603  24.202  59.451  0.00  0.00    +0.150 HD
BRANCH   2   6
ATOM      6  CA  LEU A   3       1.439  26.271  60.679  0.00  0.00    +0.149 C 
BRANCH   6   8
ATOM      7  C   PRO A   2      -0.613  27.583  60.915  0.00  0.00    +0.241 C 
ATOM      8  N   LEU A   3       0.537  27.144  61.418  0.00  0.00    -0.297 N 
ATOM      9  H   LEU A   3       0.804  27.436  62.380  0.00  0.00    +0.150 HD
ATOM     10  O   PRO A   2      -1.078  27.215  59.832  0.00  0.00    -0.273 OA
BRANCH   7  14
ATOM     11  C   ALA A   1       0.487  29.951  62.523  0.00  0.00    +0.241 C 
ATOM     12  O   ALA A   1       0.912  29.028  63.216  0.00  0.00    -0.273 OA
ATOM     13  N   PRO A   2      -0.660  29.865  61.818  0.00  0.00    -0.272 N 
ATOM     14  CA  PRO A   2      -1.381  28.592  61.763  0.00  0.00    +0.152 C 
ATOM     15  CB  PRO A   2      -2.693  28.937  61.054  0.00  0.00    +0.031 C 
ATOM     16  CG  PRO A   2      -2.539  30.295  60.508  0.00  0.00    +0.024 C 
ATOM     17  CD  PRO A   2      -1.249  30.894  60.944  0.00  0.00    +0.094 C 
BRANCH  11  18
ATOM     18  CA  ALA A   1       1.268  31.261  62.452  0.00  0.00    +0.145 C 
ATOM     19  CB  ALA A   1       1.899  31.414  61.070  0.00  0.00    +0.028 C 
BRANCH  18  20
ATOM     20  N   ALA A   1       2.317  31.218  63.469  0.00  0.00    -0.238 NA
ATOM     21  H   ALA A   1       2.458  30.335  63.999  0.00  0.00    +0.142 HD
ENDBRANCH  18  20
ENDBRANCH  11  18
ENDBRANCH   7  14
ENDBRANCH   6   8
BRANCH   6  22
ATOM     22  CB  LEU A   3       2.877  26.803  60.800  0.00  0.00    +0.029 C 
BRANCH  22  23
ATOM     23  CG  LEU A   3       4.015  26.086  60.058  0.00  0.00    +0.002 C 
ATOM     24  CD2 LEU A   3       5.357  26.613  60.543  0.00  0.00    +0.000 C 
ATOM     25  CD1 LEU A   3       3.893  26.242  58.544  0.00  0.00    +0.000 C 
ENDBRANCH  22  23
ENDBRANCH   6  22
ENDBRANCH   2   6
ENDBRANCH   1   4
BRANCH   1  26
ATOM     26  C   THR A   4       1.926  21.787  61.092  0.00  0.00    +0.243 C 
ATOM     27  N   ILE A   5       1.998  21.058  62.202  0.00  0.00    -0.297 N 
ATOM     28  H   ILE A   5       1.238  21.137  62.907  0.00  0.00    +0.150 HD
ATOM     29  O   THR A   4       2.853  21.865  60.288  0.00  0.00    -0.273 OA
BRANCH  27  30
ATOM     30  CA  ILE A   5       3.110  20.151  62.461  0.00  0.00    +0.149 C 
BRANCH  30  31
ATOM     31  C   ILE A   5       2.965  18.940  61.538  0.00  0.00    +0.241 C 
ATOM     32  O   ILE A   5       1.948  18.261  61.565  0.00  0.00    -0.273 OA
ATOM     33  N   THR A   6       3.961  18.689  60.698  0.00  0.00    -0.296 N 
ATOM     34  H   THR A   6       4.799  19.305  60.694  0.00  0.00    +0.150 HD
BRANCH  33  35
ATOM     35  CA  THR A   6       3.891  17.551  59.775  0.00  0.00    +0.164 C 
BRANCH  35  36
ATOM     36  CB  THR A   6       3.538  17.967  58.327  0.00  0.00    +0.136 C 
ATOM     37  CG2 THR A   6       2.243  18.791  58.272  0.00  0.00    +0.034 C 
BRANCH  36  38
ATOM     38  OG1 THR A   6       4.618  18.730  57.773  0.00  0.00    -0.382 OA
ATOM     39  HG1 THR A   6       4.392  18.996  56.847  0.00  0.00    +0.210 HD
ENDBRANCH  36  38
ENDBRANCH  35  36
BRANCH  35  40
ATOM     40  C   THR A   6       5.230  16.842  59.735  0.00  0.00    +0.229 C 
ATOM     41  O   THR A   6       6.253  17.420  60.089  0.00  0.00    -0.286 OA
ENDBRANCH  35  40
ENDBRANCH  33  35
ENDBRANCH  30  31
BRANCH  30  42
ATOM     42  CB  ILE A   5       3.114  19.688  63.928  0.00  0.00    +0.027 C 
ATOM     43  CG2 ILE A   5       4.271  18.731  64.188  0.00  0.00    +0.002 C 
BRANCH  42  44
ATOM     44  CG1 ILE A   5       3.186  20.906  64.862  0.00  0.00    +0.002 C 
ATOM     45  CD1 ILE A   5       2.650  20.651  66.257  0.00  0.00    +0.000 C 
ENDBRANCH  42  44
ENDBRANCH  30  42
ENDBRANCH  27  30
ENDBRANCH   1  26
BRANCH   1  46
ATOM     46  CB  THR A   4      -0.248  21.814  59.828  0.00  0.00    +0.137 C 
ATOM     47  CG2 THR A   4      -0.673  20.445  60.368  0.00  0.00    +0.034 C 
BRANCH  46  48
ATOM     48  OG1 THR A   4      -1.411  22.598  59.540  0.00  0.00    -0.382 OA
ATOM     49  HG1 THR A   4      -1.972  22.123  58.877  0.00  0.00    +0.210 HD
ENDBRANCH  46  48
ENDBRANCH   1  46
TORSDOF 19
REMARK  Name = ../refined-set-2016/3tza/3tza_pocket.pdb
REMARK  226 active torsions:
REMARK  status: ('A' for Active; 'I' for Inactive)
REMARK    1  A    between atoms: _1  and  _3
REMARK    2  A    between atoms: _3  and  _4
REMARK    3  A    between atoms: _3  and  _6
REMARK    4  A    between atoms: _6  and  _7
REMARK    5  A    between atoms: _10  and  _12
REMARK    6  A    between atoms: _12  and  _13
REMARK    7  A    between atoms: _12  and  _15
REMARK    8  A    between atoms: _15  and  _16
REMARK    9  A    between atoms: _16  and  _17
REMARK   10  A    between atoms: _20  and  _22
REMARK   11  A    between atoms: _22  and  _23
REMARK   12  A    between atoms: _22  and  _25
REMARK   13  A    between atoms: _25  and  _26
REMARK   14  A    between atoms: _29  and  _30
REMARK   15  A    between atoms: _35  and  _37
REMARK   16  A    between atoms: _37  and  _38
REMARK   17  A    between atoms: _37  and  _40
REMARK   18  A    between atoms: _40  and  _41
REMARK   19  A    between atoms: _46  and  _47
REMARK   20  A    between atoms: _49  and  _51
REMARK   21  A    between atoms: _51  and  _52
REMARK   22  A    between atoms: _51  and  _54
REMARK   23  A    between atoms: _54  and  _55
REMARK   24  A    between atoms: _55  and  _56
REMARK   25  A    between atoms: _56  and  _57
REMARK   26  A    between atoms: _57  and  _58
REMARK   27  A    between atoms: _62  and  _64
REMARK   28  A    between atoms: _64  and  _65
REMARK   29  A    between atoms: _64  and  _67
REMARK   30  A    between atoms: _67  and  _68
REMARK   31  A    between atoms: _73  and  _74
REMARK   32  A    between atoms: _76  and  _78
REMARK   33  A    between atoms: _78  and  _79
REMARK   34  A    between atoms: _81  and  _83
REMARK   35  A    between atoms: _83  and  _84
REMARK   36  A    between atoms: _87  and  _89
REMARK   37  A    between atoms: _89  and  _90
REMARK   38  A    between atoms: _89  and  _92
REMARK   39  A    between atoms: _92  and  _93
REMARK   40  A    between atoms: _93  and  _94
REMARK   41  A    between atoms: _96  and  _98
REMARK   42  A    between atoms: _98  and  _99
REMARK   43  A    between atoms: _98  and  _101
REMARK   44  A    between atoms: _104  and  _106
REMARK   45  A    between atoms: _106  and  _107
REMARK   46  A    between atoms: _111  and  _112
REMARK   47  A    between atoms: _117  and  _119
REMARK   48  A    between atoms: _119  and  _120
REMARK   49  A    between atoms: _119  and  _122
REMARK   50  A    between atoms: _122  and  _123
REMARK   51  A    between atoms: _126  and  _128
REMARK   52  A    between atoms: _128  and  _129
REMARK   53  A    between atoms: _128  and  _131
REMARK   54  A    between atoms: _131  and  _132
REMARK   55  A    between atoms: _135  and  _137
REMARK   56  A    between atoms: _137  and  _138
REMARK   57  A    between atoms: _137  and  _140
REMARK   58  A    between atoms: _140  and  _141
REMARK   59  A    between atoms: _144  and  _146
REMARK   60  A    between atoms: _146  and  _147
REMARK   61  A    between atoms: _146  and  _149
REMARK   62  A    between atoms: _149  and  _150
REMARK   63  A    between atoms: _153  and  _155
REMARK   64  A    between atoms: _155  and  _156
REMARK   65  A    between atoms: _155  and  _158
REMARK   66  A    between atoms: _158  and  _159
REMARK   67  A    between atoms: _159  and  _160
REMARK   68  A    between atoms: _160  and  _161
REMARK   69  A    between atoms: _170  and  _172
REMARK   70  A    between atoms: _172  and  _173
REMARK   71  A    between atoms: _172  and  _175
REMARK   72  A    between atoms: _175  and  _176
REMARK   73  A    between atoms: _182  and  _184
REMARK   74  A    between atoms: _184  and  _185
REMARK   75  A    between atoms: _184  and  _187
REMARK   76  A    between atoms: _187  and  _188
REMARK   77  A    between atoms: _191  and  _193
REMARK   78  A    between atoms: _193  and  _194
REMARK   79  A    between atoms: _196  and  _198
REMARK   80  A    between atoms: _198  and  _199
REMARK   81  A    between atoms: _198  and  _201
REMARK   82  A    between atoms: _201  and  _202
REMARK   83  A    between atoms: _205  and  _207
REMARK   84  A    between atoms: _207  and  _208
REMARK   85  A    between atoms: _207  and  _210
REMARK   86  A    between atoms: _210  and  _211
REMARK   87  A    between atoms: _213  and  _215
REMARK   88  A    between atoms: _215  and  _216
REMARK   89  A    between atoms: _215  and  _218
REMARK   90  A    between atoms: _218  and  _219
REMARK   91  A    between atoms: _219  and  _220
REMARK   92  A    between atoms: _222  and  _224
REMARK   93  A    between atoms: _224  and  _225
REMARK   94  A    between atoms: _224  and  _227
REMARK   95  A    between atoms: _227  and  _228
REMARK   96  A    between atoms: _231  and  _233
REMARK   97  A    between atoms: _233  and  _234
REMARK   98  A    between atoms: _233  and  _236
REMARK   99  A    between atoms: _236  and  _237
REMARK  100  A    between atoms: _240  and  _242
REMARK  101  A    between atoms: _242  and  _243
REMARK  102  A    between atoms: _242  and  _245
REMARK  103  A    between atoms: _245  and  _246
REMARK  104  A    between atoms: _249  and  _251
REMARK  105  A    between atoms: _251  and  _252
REMARK  106  A    between atoms: _251  and  _254
REMARK  107  A    between atoms: _254  and  _255
REMARK  108  A    between atoms: _257  and  _259
REMARK  109  A    between atoms: _259  and  _260
REMARK  110  A    between atoms: _262  and  _264
REMARK  111  A    between atoms: _264  and  _265
REMARK  112  A    between atoms: _264  and  _267
REMARK  113  A    between atoms: _267  and  _268
REMARK  114  A    between atoms: _270  and  _272
REMARK  115  A    between atoms: _272  and  _273
REMARK  116  A    between atoms: _272  and  _275
REMARK  117  A    between atoms: _275  and  _276
REMARK  118  A    between atoms: _279  and  _281
REMARK  119  A    between atoms: _281  and  _282
REMARK  120  A    between atoms: _281  and  _284
REMARK  121  A    between atoms: _284  and  _285
REMARK  122  A    between atoms: _285  and  _286
REMARK  123  A    between atoms: _286  and  _287
REMARK  124  A    between atoms: _287  and  _288
REMARK  125  A    between atoms: _292  and  _294
REMARK  126  A    between atoms: _294  and  _295
REMARK  127  A    between atoms: _294  and  _297
REMARK  128  A    between atoms: _297  and  _298
REMARK  129  A    between atoms: _298  and  _299
REMARK  130  A    between atoms: _302  and  _304
REMARK  131  A    between atoms: _304  and  _305
REMARK  132  A    between atoms: _304  and  _307
REMARK  133  A    between atoms: _307  and  _308
REMARK  134  A    between atoms: _314  and  _316
REMARK  135  A    between atoms: _316  and  _317
REMARK  136  A    between atoms: _316  and  _319
REMARK  137  A    between atoms: _322  and  _324
REMARK  138  A    between atoms: _324  and  _325
REMARK  139  A    between atoms: _324  and  _327
REMARK  140  A    between atoms: _327  and  _328
REMARK  141  A    between atoms: _328  and  _329
REMARK  142  A    between atoms: _329  and  _330
REMARK  143  A    between atoms: _339  and  _341
REMARK  144  A    between atoms: _341  and  _342
REMARK  145  A    between atoms: _341  and  _344
REMARK  146  A    between atoms: _344  and  _345
REMARK  147  A    between atoms: _348  and  _350
REMARK  148  A    between atoms: _350  and  _351
REMARK  149  A    between atoms: _350  and  _353
REMARK  150  A    between atoms: _353  and  _354
REMARK  151  A    between atoms: _357  and  _359
REMARK  152  A    between atoms: _359  and  _360
REMARK  153  A    between atoms: _363  and  _365
REMARK  154  A    between atoms: _365  and  _366
REMARK  155  A    between atoms: _368  and  _370
REMARK  156  A    between atoms: _370  and  _371
REMARK  157  A    between atoms: _370  and  _373
REMARK  158  A    between atoms: _376  and  _378
REMARK  159  A    between atoms: _378  and  _379
REMARK  160  A    between atoms: _378  and  _381
REMARK  161  A    between atoms: _381  and  _382
REMARK  162  A    between atoms: _387  and  _388
REMARK  163  A    between atoms: _390  and  _392
REMARK  164  A    between atoms: _392  and  _393
REMARK  165  A    between atoms: _392  and  _395
REMARK  166  A    between atoms: _395  and  _396
REMARK  167  A    between atoms: _399  and  _401
REMARK  168  A    between atoms: _401  and  _402
REMARK  169  A    between atoms: _401  and  _404
REMARK  170  A    between atoms: _404  and  _405
REMARK  171  A    between atoms: _408  and  _410
REMARK  172  A    between atoms: _410  and  _411
REMARK  173  A    between atoms: _410  and  _413
REMARK  174  A    between atoms: _413  and  _414
REMARK  175  A    between atoms: _414  and  _415
REMARK  176  A    between atoms: _418  and  _420
REMARK  177  A    between atoms: _420  and  _421
REMARK  178  A    between atoms: _420  and  _423
REMARK  179  A    between atoms: _423  and  _424
REMARK  180  A    between atoms: _426  and  _428
REMARK  181  A    between atoms: _428  and  _429
REMARK  182  A    between atoms: _428  and  _431
REMARK  183  A    between atoms: _431  and  _432
REMARK  184  A    between atoms: _435  and  _437
REMARK  185  A    between atoms: _437  and  _438
REMARK  186  A    between atoms: _437  and  _440
REMARK  187  A    between atoms: _440  and  _441
REMARK  188  A    between atoms: _441  and  _442
REMARK  189  A    between atoms: _444  and  _446
REMARK  190  A    between atoms: _446  and  _447
REMARK  191  A    between atoms: _446  and  _449
REMARK  192  A    between atoms: _449  and  _450
REMARK  193  A    between atoms: _455  and  _457
REMARK  194  A    between atoms: _457  and  _458
REMARK  195  A    between atoms: _457  and  _460
REMARK  196  A    between atoms: _460  and  _461
REMARK  197  A    between atoms: _461  and  _462
REMARK  198  A    between atoms: _465  and  _467
REMARK  199  A    between atoms: _467  and  _468
REMARK  200  A    between atoms: _467  and  _470
REMARK  201  A    between atoms: _470  and  _471
REMARK  202  A    between atoms: _476  and  _477
REMARK  203  A    between atoms: _479  and  _481
REMARK  204  A    between atoms: _481  and  _482
REMARK  205  A    between atoms: _481  and  _484
REMARK  206  A    between atoms: _484  and  _485
REMARK  207  A    between atoms: _488  and  _490
REMARK  208  A    between atoms: _490  and  _491
REMARK  209  A    between atoms: _490  and  _493
REMARK  210  A    between atoms: _493  and  _494
REMARK  211  A    between atoms: _494  and  _495
REMARK  212  A    between atoms: _495  and  _496
REMARK  213  A    between atoms: _496  and  _497
REMARK  214  A    between atoms: _501  and  _503
REMARK  215  A    between atoms: _503  and  _504
REMARK  216  A    between atoms: _506  and  _508
REMARK  217  A    between atoms: _508  and  _509
REMARK  218  A    between atoms: _508  and  _511
REMARK  219  A    between atoms: _511  and  _512
REMARK  220  A    between atoms: _517  and  _518
REMARK  221  A    between atoms: _520  and  _522
REMARK  222  A    between atoms: _522  and  _523
REMARK  223  A    between atoms: _525  and  _527
REMARK  224  A    between atoms: _527  and  _528
REMARK  225  A    between atoms: _527  and  _530
REMARK  226  A    between atoms: _530  and  _531
REMARK                            x       y       z     vdW  Elec       q    Type
REMARK                         _______ _______ _______ _____ _____    ______ ____
ROOT
ATOM      1  NE  ARG A   1       4.699  22.601  56.454  0.00  0.00    -0.265 N 
ATOM      2  CZ  ARG A   1       3.484  23.138  56.515  0.00  0.00    +0.342 C 
ATOM      3  NH2 ARG A   1       2.806  23.111  57.654  0.00  0.00    -0.292 N 
ATOM      4 HH21 ARG A   1       3.225  22.670  58.498  0.00  0.00    +0.255 HD
ATOM      5 HH22 ARG A   1       1.856  23.530  57.704  0.00  0.00    +0.255 HD
ATOM      6  NH1 ARG A   1       2.942  23.693  55.437  0.00  0.00    -0.292 N 
ATOM      7 HH11 ARG A   1       1.991  24.112  55.490  0.00  0.00    +0.255 HD
ATOM      8 HH12 ARG A   1       3.468  23.709  54.540  0.00  0.00    +0.255 HD
ATOM      9  HE  ARG A   1       5.198  22.628  55.542  0.00  0.00    +0.259 HD
ENDROOT
BRANCH   1  10
ATOM     10  CD  ARG A   1       5.378  21.975  57.588  0.00  0.00    +0.174 C 
BRANCH  10  11
ATOM     11  CG  ARG A   1       6.612  21.185  57.170  0.00  0.00    +0.045 C 
BRANCH  11  12
ATOM     12  CB  ARG A   1       7.410  20.728  58.395  0.00  0.00    +0.029 C 
BRANCH  12  13
ATOM     13  CA  ARG A   1       8.531  19.729  58.073  0.00  0.00    +0.133 C 
BRANCH  13  14
ATOM     14  N   ARG A   1       7.999  18.509  57.462  0.00  0.00    -0.239 NA
ATOM     15  H   ARG A   1       6.999  18.255  57.594  0.00  0.00    +0.142 HD
ENDBRANCH  13  14
BRANCH  13  16
ATOM     16  C   ARG A   1       9.387  19.450  59.311  0.00  0.00    +0.224 C 
ATOM     17  O   ARG A   1      10.422  20.089  59.499  0.00  0.00    -0.287 OA
ENDBRANCH  13  16
ENDBRANCH  12  13
ENDBRANCH  11  12
ENDBRANCH  10  11
ENDBRANCH   1  10
TORSDOF 6
REMARK  Name = ../refined-set-2016/3tza/3tza_pocket.pdb
REMARK  226 active torsions:
REMARK  status: ('A' for Active; 'I' for Inactive)
REMARK    1  A    between atoms: _1  and  _3
REMARK    2  A    between atoms: _3  and  _4
REMARK    3  A    between atoms: _3  and  _6
REMARK    4  A    between atoms: _6  and  _7
REMARK    5  A    between atoms: _10  and  _12
REMARK    6  A    between atoms: _12  and  _13
REMARK    7  A    between atoms: _12  and  _15
REMARK    8  A    between atoms: _15  and  _16
REMARK    9  A    between atoms: _16  and  _17
REMARK   10  A    between atoms: _20  and  _22
REMARK   11  A    between atoms: _22  and  _23
REMARK   12  A    between atoms: _22  and  _25
REMARK   13  A    between atoms: _25  and  _26
REMARK   14  A    between atoms: _29  and  _30
REMARK   15  A    between atoms: _35  and  _37
REMARK   16  A    between atoms: _37  and  _38
REMARK   17  A    between atoms: _37  and  _40
REMARK   18  A    between atoms: _40  and  _41
REMARK   19  A    between atoms: _46  and  _47
REMARK   20  A    between atoms: _49  and  _51
REMARK   21  A    between atoms: _51  and  _52
REMARK   22  A    between atoms: _51  and  _54
REMARK   23  A    between atoms: _54  and  _55
REMARK   24  A    between atoms: _55  and  _56
REMARK   25  A    between atoms: _56  and  _57
REMARK   26  A    between atoms: _57  and  _58
REMARK   27  A    between atoms: _62  and  _64
REMARK   28  A    between atoms: _64  and  _65
REMARK   29  A    between atoms: _64  and  _67
REMARK   30  A    between atoms: _67  and  _68
REMARK   31  A    between atoms: _73  and  _74
REMARK   32  A    between atoms: _76  and  _78
REMARK   33  A    between atoms: _78  and  _79
REMARK   34  A    between atoms: _81  and  _83
REMARK   35  A    between atoms: _83  and  _84
REMARK   36  A    between atoms: _87  and  _89
REMARK   37  A    between atoms: _89  and  _90
REMARK   38  A    between atoms: _89  and  _92
REMARK   39  A    between atoms: _92  and  _93
REMARK   40  A    between atoms: _93  and  _94
REMARK   41  A    between atoms: _96  and  _98
REMARK   42  A    between atoms: _98  and  _99
REMARK   43  A    between atoms: _98  and  _101
REMARK   44  A    between atoms: _104  and  _106
REMARK   45  A    between atoms: _106  and  _107
REMARK   46  A    between atoms: _111  and  _112
REMARK   47  A    between atoms: _117  and  _119
REMARK   48  A    between atoms: _119  and  _120
REMARK   49  A    between atoms: _119  and  _122
REMARK   50  A    between atoms: _122  and  _123
REMARK   51  A    between atoms: _126  and  _128
REMARK   52  A    between atoms: _128  and  _129
REMARK   53  A    between atoms: _128  and  _131
REMARK   54  A    between atoms: _131  and  _132
REMARK   55  A    between atoms: _135  and  _137
REMARK   56  A    between atoms: _137  and  _138
REMARK   57  A    between atoms: _137  and  _140
REMARK   58  A    between atoms: _140  and  _141
REMARK   59  A    between atoms: _144  and  _146
REMARK   60  A    between atoms: _146  and  _147
REMARK   61  A    between atoms: _146  and  _149
REMARK   62  A    between atoms: _149  and  _150
REMARK   63  A    between atoms: _153  and  _155
REMARK   64  A    between atoms: _155  and  _156
REMARK   65  A    between atoms: _155  and  _158
REMARK   66  A    between atoms: _158  and  _159
REMARK   67  A    between atoms: _159  and  _160
REMARK   68  A    between atoms: _160  and  _161
REMARK   69  A    between atoms: _170  and  _172
REMARK   70  A    between atoms: _172  and  _173
REMARK   71  A    between atoms: _172  and  _175
REMARK   72  A    between atoms: _175  and  _176
REMARK   73  A    between atoms: _182  and  _184
REMARK   74  A    between atoms: _184  and  _185
REMARK   75  A    between atoms: _184  and  _187
REMARK   76  A    between atoms: _187  and  _188
REMARK   77  A    between atoms: _191  and  _193
REMARK   78  A    between atoms: _193  and  _194
REMARK   79  A    between atoms: _196  and  _198
REMARK   80  A    between atoms: _198  and  _199
REMARK   81  A    between atoms: _198  and  _201
REMARK   82  A    between atoms: _201  and  _202
REMARK   83  A    between atoms: _205  and  _207
REMARK   84  A    between atoms: _207  and  _208
REMARK   85  A    between atoms: _207  and  _210
REMARK   86  A    between atoms: _210  and  _211
REMARK   87  A    between atoms: _213  and  _215
REMARK   88  A    between atoms: _215  and  _216
REMARK   89  A    between atoms: _215  and  _218
REMARK   90  A    between atoms: _218  and  _219
REMARK   91  A    between atoms: _219  and  _220
REMARK   92  A    between atoms: _222  and  _224
REMARK   93  A    between atoms: _224  and  _225
REMARK   94  A    between atoms: _224  and  _227
REMARK   95  A    between atoms: _227  and  _228
REMARK   96  A    between atoms: _231  and  _233
REMARK   97  A    between atoms: _233  and  _234
REMARK   98  A    between atoms: _233  and  _236
REMARK   99  A    between atoms: _236  and  _237
REMARK  100  A    between atoms: _240  and  _242
REMARK  101  A    between atoms: _242  and  _243
REMARK  102  A    between atoms: _242  and  _245
REMARK  103  A    between atoms: _245  and  _246
REMARK  104  A    between atoms: _249  and  _251
REMARK  105  A    between atoms: _251  and  _252
REMARK  106  A    between atoms: _251  and  _254
REMARK  107  A    between atoms: _254  and  _255
REMARK  108  A    between atoms: _257  and  _259
REMARK  109  A    between atoms: _259  and  _260
REMARK  110  A    between atoms: _262  and  _264
REMARK  111  A    between atoms: _264  and  _265
REMARK  112  A    between atoms: _264  and  _267
REMARK  113  A    between atoms: _267  and  _268
REMARK  114  A    between atoms: _270  and  _272
REMARK  115  A    between atoms: _272  and  _273
REMARK  116  A    between atoms: _272  and  _275
REMARK  117  A    between atoms: _275  and  _276
REMARK  118  A    between atoms: _279  and  _281
REMARK  119  A    between atoms: _281  and  _282
REMARK  120  A    between atoms: _281  and  _284
REMARK  121  A    between atoms: _284  and  _285
REMARK  122  A    between atoms: _285  and  _286
REMARK  123  A    between atoms: _286  and  _287
REMARK  124  A    between atoms: _287  and  _288
REMARK  125  A    between atoms: _292  and  _294
REMARK  126  A    between atoms: _294  and  _295
REMARK  127  A    between atoms: _294  and  _297
REMARK  128  A    between atoms: _297  and  _298
REMARK  129  A    between atoms: _298  and  _299
REMARK  130  A    between atoms: _302  and  _304
REMARK  131  A    between atoms: _304  and  _305
REMARK  132  A    between atoms: _304  and  _307
REMARK  133  A    between atoms: _307  and  _308
REMARK  134  A    between atoms: _314  and  _316
REMARK  135  A    between atoms: _316  and  _317
REMARK  136  A    between atoms: _316  and  _319
REMARK  137  A    between atoms: _322  and  _324
REMARK  138  A    between atoms: _324  and  _325
REMARK  139  A    between atoms: _324  and  _327
REMARK  140  A    between atoms: _327  and  _328
REMARK  141  A    between atoms: _328  and  _329
REMARK  142  A    between atoms: _329  and  _330
REMARK  143  A    between atoms: _339  and  _341
REMARK  144  A    between atoms: _341  and  _342
REMARK  145  A    between atoms: _341  and  _344
REMARK  146  A    between atoms: _344  and  _345
REMARK  147  A    between atoms: _348  and  _350
REMARK  148  A    between atoms: _350  and  _351
REMARK  149  A    between atoms: _350  and  _353
REMARK  150  A    between atoms: _353  and  _354
REMARK  151  A    between atoms: _357  and  _359
REMARK  152  A    between atoms: _359  and  _360
REMARK  153  A    between atoms: _363  and  _365
REMARK  154  A    between atoms: _365  and  _366
REMARK  155  A    between atoms: _368  and  _370
REMARK  156  A    between atoms: _370  and  _371
REMARK  157  A    between atoms: _370  and  _373
REMARK  158  A    between atoms: _376  and  _378
REMARK  159  A    between atoms: _378  and  _379
REMARK  160  A    between atoms: _378  and  _381
REMARK  161  A    between atoms: _381  and  _382
REMARK  162  A    between atoms: _387  and  _388
REMARK  163  A    between atoms: _390  and  _392
REMARK  164  A    between atoms: _392  and  _393
REMARK  165  A    between atoms: _392  and  _395
REMARK  166  A    between atoms: _395  and  _396
REMARK  167  A    between atoms: _399  and  _401
REMARK  168  A    between atoms: _401  and  _402
REMARK  169  A    between atoms: _401  and  _404
REMARK  170  A    between atoms: _404  and  _405
REMARK  171  A    between atoms: _408  and  _410
REMARK  172  A    between atoms: _410  and  _411
REMARK  173  A    between atoms: _410  and  _413
REMARK  174  A    between atoms: _413  and  _414
REMARK  175  A    between atoms: _414  and  _415
REMARK  176  A    between atoms: _418  and  _420
REMARK  177  A    between atoms: _420  and  _421
REMARK  178  A    between atoms: _420  and  _423
REMARK  179  A    between atoms: _423  and  _424
REMARK  180  A    between atoms: _426  and  _428
REMARK  181  A    between atoms: _428  and  _429
REMARK  182  A    between atoms: _428  and  _431
REMARK  183  A    between atoms: _431  and  _432
REMARK  184  A    between atoms: _435  and  _437
REMARK  185  A    between atoms: _437  and  _438
REMARK  186  A    between atoms: _437  and  _440
REMARK  187  A    between atoms: _440  and  _441
REMARK  188  A    between atoms: _441  and  _442
REMARK  189  A    between atoms: _444  and  _446
REMARK  190  A    between atoms: _446  and  _447
REMARK  191  A    between atoms: _446  and  _449
REMARK  192  A    between atoms: _449  and  _450
REMARK  193  A    between atoms: _455  and  _457
REMARK  194  A    between atoms: _457  and  _458
REMARK  195  A    between atoms: _457  and  _460
REMARK  196  A    between atoms: _460  and  _461
REMARK  197  A    between atoms: _461  and  _462
REMARK  198  A    between atoms: _465  and  _467
REMARK  199  A    between atoms: _467  and  _468
REMARK  200  A    between atoms: _467  and  _470
REMARK  201  A    between atoms: _470  and  _471
REMARK  202  A    between atoms: _476  and  _477
REMARK  203  A    between atoms: _479  and  _481
REMARK  204  A    between atoms: _481  and  _482
REMARK  205  A    between atoms: _481  and  _484
REMARK  206  A    between atoms: _484  and  _485
REMARK  207  A    between atoms: _488  and  _490
REMARK  208  A    between atoms: _490  and  _491
REMARK  209  A    between atoms: _490  and  _493
REMARK  210  A    between atoms: _493  and  _494
REMARK  211  A    between atoms: _494  and  _495
REMARK  212  A    between atoms: _495  and  _496
REMARK  213  A    between atoms: _496  and  _497
REMARK  214  A    between atoms: _501  and  _503
REMARK  215  A    between atoms: _503  and  _504
REMARK  216  A    between atoms: _506  and  _508
REMARK  217  A    between atoms: _508  and  _509
REMARK  218  A    between atoms: _508  and  _511
REMARK  219  A    between atoms: _511  and  _512
REMARK  220  A    between atoms: _517  and  _518
REMARK  221  A    between atoms: _520  and  _522
REMARK  222  A    between atoms: _522  and  _523
REMARK  223  A    between atoms: _525  and  _527
REMARK  224  A    between atoms: _527  and  _528
REMARK  225  A    between atoms: _527  and  _530
REMARK  226  A    between atoms: _530  and  _531
REMARK                            x       y       z     vdW  Elec       q    Type
REMARK                         _______ _______ _______ _____ _____    ______ ____
ROOT
ATOM      1  CB  PHE A   1       6.962  21.657  65.627  0.00  0.00    +0.051 C 
ENDROOT
BRANCH   1   2
ATOM      2  CG  PHE A   1       6.684  22.003  64.196  0.00  0.00    -0.020 A 
ATOM      3  CD2 PHE A   1       5.851  23.062  63.874  0.00  0.00    -0.004 A 
ATOM      4  CE2 PHE A   1       5.573  23.363  62.557  0.00  0.00    -0.000 A 
ATOM      5  CZ  PHE A   1       6.117  22.593  61.542  0.00  0.00    -0.000 A 
ATOM      6  CE1 PHE A   1       6.943  21.531  61.853  0.00  0.00    -0.000 A 
ATOM      7  CD1 PHE A   1       7.216  21.232  63.170  0.00  0.00    -0.004 A 
ENDBRANCH   1   2
BRANCH   1   8
ATOM      8  CA  PHE A   1       8.046  22.512  66.293  0.00  0.00    +0.137 C 
BRANCH   8   9
ATOM      9  N   PHE A   1       9.366  22.008  65.949  0.00  0.00    -0.239 NA
ATOM     10  H   PHE A   1       9.637  21.065  66.293  0.00  0.00    +0.142 HD
ENDBRANCH   8   9
BRANCH   8  11
ATOM     11  C   PHE A   1       7.849  22.369  67.790  0.00  0.00    +0.224 C 
ATOM     12  O   PHE A   1       8.267  21.376  68.377  0.00  0.00    -0.287 OA
ENDBRANCH   8  11
ENDBRANCH   1   8
TORSDOF 4
REMARK  Name = ../refined-set-2016/3tza/3tza_pocket.pdb
REMARK  226 active torsions:
REMARK  status: ('A' for Active; 'I' for Inactive)
REMARK    1  A    between atoms: _1  and  _3
REMARK    2  A    between atoms: _3  and  _4
REMARK    3  A    between atoms: _3  and  _6
REMARK    4  A    between atoms: _6  and  _7
REMARK    5  A    between atoms: _10  and  _12
REMARK    6  A    between atoms: _12  and  _13
REMARK    7  A    between atoms: _12  and  _15
REMARK    8  A    between atoms: _15  and  _16
REMARK    9  A    between atoms: _16  and  _17
REMARK   10  A    between atoms: _20  and  _22
REMARK   11  A    between atoms: _22  and  _23
REMARK   12  A    between atoms: _22  and  _25
REMARK   13  A    between atoms: _25  and  _26
REMARK   14  A    between atoms: _29  and  _30
REMARK   15  A    between atoms: _35  and  _37
REMARK   16  A    between atoms: _37  and  _38
REMARK   17  A    between atoms: _37  and  _40
REMARK   18  A    between atoms: _40  and  _41
REMARK   19  A    between atoms: _46  and  _47
REMARK   20  A    between atoms: _49  and  _51
REMARK   21  A    between atoms: _51  and  _52
REMARK   22  A    between atoms: _51  and  _54
REMARK   23  A    between atoms: _54  and  _55
REMARK   24  A    between atoms: _55  and  _56
REMARK   25  A    between atoms: _56  and  _57
REMARK   26  A    between atoms: _57  and  _58
REMARK   27  A    between atoms: _62  and  _64
REMARK   28  A    between atoms: _64  and  _65
REMARK   29  A    between atoms: _64  and  _67
REMARK   30  A    between atoms: _67  and  _68
REMARK   31  A    between atoms: _73  and  _74
REMARK   32  A    between atoms: _76  and  _78
REMARK   33  A    between atoms: _78  and  _79
REMARK   34  A    between atoms: _81  and  _83
REMARK   35  A    between atoms: _83  and  _84
REMARK   36  A    between atoms: _87  and  _89
REMARK   37  A    between atoms: _89  and  _90
REMARK   38  A    between atoms: _89  and  _92
REMARK   39  A    between atoms: _92  and  _93
REMARK   40  A    between atoms: _93  and  _94
REMARK   41  A    between atoms: _96  and  _98
REMARK   42  A    between atoms: _98  and  _99
REMARK   43  A    between atoms: _98  and  _101
REMARK   44  A    between atoms: _104  and  _106
REMARK   45  A    between atoms: _106  and  _107
REMARK   46  A    between atoms: _111  and  _112
REMARK   47  A    between atoms: _117  and  _119
REMARK   48  A    between atoms: _119  and  _120
REMARK   49  A    between atoms: _119  and  _122
REMARK   50  A    between atoms: _122  and  _123
REMARK   51  A    between atoms: _126  and  _128
REMARK   52  A    between atoms: _128  and  _129
REMARK   53  A    between atoms: _128  and  _131
REMARK   54  A    between atoms: _131  and  _132
REMARK   55  A    between atoms: _135  and  _137
REMARK   56  A    between atoms: _137  and  _138
REMARK   57  A    between atoms: _137  and  _140
REMARK   58  A    between atoms: _140  and  _141
REMARK   59  A    between atoms: _144  and  _146
REMARK   60  A    between atoms: _146  and  _147
REMARK   61  A    between atoms: _146  and  _149
REMARK   62  A    between atoms: _149  and  _150
REMARK   63  A    between atoms: _153  and  _155
REMARK   64  A    between atoms: _155  and  _156
REMARK   65  A    between atoms: _155  and  _158
REMARK   66  A    between atoms: _158  and  _159
REMARK   67  A    between atoms: _159  and  _160
REMARK   68  A    between atoms: _160  and  _161
REMARK   69  A    between atoms: _170  and  _172
REMARK   70  A    between atoms: _172  and  _173
REMARK   71  A    between atoms: _172  and  _175
REMARK   72  A    between atoms: _175  and  _176
REMARK   73  A    between atoms: _182  and  _184
REMARK   74  A    between atoms: _184  and  _185
REMARK   75  A    between atoms: _184  and  _187
REMARK   76  A    between atoms: _187  and  _188
REMARK   77  A    between atoms: _191  and  _193
REMARK   78  A    between atoms: _193  and  _194
REMARK   79  A    between atoms: _196  and  _198
REMARK   80  A    between atoms: _198  and  _199
REMARK   81  A    between atoms: _198  and  _201
REMARK   82  A    between atoms: _201  and  _202
REMARK   83  A    between atoms: _205  and  _207
REMARK   84  A    between atoms: _207  and  _208
REMARK   85  A    between atoms: _207  and  _210
REMARK   86  A    between atoms: _210  and  _211
REMARK   87  A    between atoms: _213  and  _215
REMARK   88  A    between atoms: _215  and  _216
REMARK   89  A    between atoms: _215  and  _218
REMARK   90  A    between atoms: _218  and  _219
REMARK   91  A    between atoms: _219  and  _220
REMARK   92  A    between atoms: _222  and  _224
REMARK   93  A    between atoms: _224  and  _225
REMARK   94  A    between atoms: _224  and  _227
REMARK   95  A    between atoms: _227  and  _228
REMARK   96  A    between atoms: _231  and  _233
REMARK   97  A    between atoms: _233  and  _234
REMARK   98  A    between atoms: _233  and  _236
REMARK   99  A    between atoms: _236  and  _237
REMARK  100  A    between atoms: _240  and  _242
REMARK  101  A    between atoms: _242  and  _243
REMARK  102  A    between atoms: _242  and  _245
REMARK  103  A    between atoms: _245  and  _246
REMARK  104  A    between atoms: _249  and  _251
REMARK  105  A    between atoms: _251  and  _252
REMARK  106  A    between atoms: _251  and  _254
REMARK  107  A    between atoms: _254  and  _255
REMARK  108  A    between atoms: _257  and  _259
REMARK  109  A    between atoms: _259  and  _260
REMARK  110  A    between atoms: _262  and  _264
REMARK  111  A    between atoms: _264  and  _265
REMARK  112  A    between atoms: _264  and  _267
REMARK  113  A    between atoms: _267  and  _268
REMARK  114  A    between atoms: _270  and  _272
REMARK  115  A    between atoms: _272  and  _273
REMARK  116  A    between atoms: _272  and  _275
REMARK  117  A    between atoms: _275  and  _276
REMARK  118  A    between atoms: _279  and  _281
REMARK  119  A    between atoms: _281  and  _282
REMARK  120  A    between atoms: _281  and  _284
REMARK  121  A    between atoms: _284  and  _285
REMARK  122  A    between atoms: _285  and  _286
REMARK  123  A    between atoms: _286  and  _287
REMARK  124  A    between atoms: _287  and  _288
REMARK  125  A    between atoms: _292  and  _294
REMARK  126  A    between atoms: _294  and  _295
REMARK  127  A    between atoms: _294  and  _297
REMARK  128  A    between atoms: _297  and  _298
REMARK  129  A    between atoms: _298  and  _299
REMARK  130  A    between atoms: _302  and  _304
REMARK  131  A    between atoms: _304  and  _305
REMARK  132  A    between atoms: _304  and  _307
REMARK  133  A    between atoms: _307  and  _308
REMARK  134  A    between atoms: _314  and  _316
REMARK  135  A    between atoms: _316  and  _317
REMARK  136  A    between atoms: _316  and  _319
REMARK  137  A    between atoms: _322  and  _324
REMARK  138  A    between atoms: _324  and  _325
REMARK  139  A    between atoms: _324  and  _327
REMARK  140  A    between atoms: _327  and  _328
REMARK  141  A    between atoms: _328  and  _329
REMARK  142  A    between atoms: _329  and  _330
REMARK  143  A    between atoms: _339  and  _341
REMARK  144  A    between atoms: _341  and  _342
REMARK  145  A    between atoms: _341  and  _344
REMARK  146  A    between atoms: _344  and  _345
REMARK  147  A    between atoms: _348  and  _350
REMARK  148  A    between atoms: _350  and  _351
REMARK  149  A    between atoms: _350  and  _353
REMARK  150  A    between atoms: _353  and  _354
REMARK  151  A    between atoms: _357  and  _359
REMARK  152  A    between atoms: _359  and  _360
REMARK  153  A    between atoms: _363  and  _365
REMARK  154  A    between atoms: _365  and  _366
REMARK  155  A    between atoms: _368  and  _370
REMARK  156  A    between atoms: _370  and  _371
REMARK  157  A    between atoms: _370  and  _373
REMARK  158  A    between atoms: _376  and  _378
REMARK  159  A    between atoms: _378  and  _379
REMARK  160  A    between atoms: _378  and  _381
REMARK  161  A    between atoms: _381  and  _382
REMARK  162  A    between atoms: _387  and  _388
REMARK  163  A    between atoms: _390  and  _392
REMARK  164  A    between atoms: _392  and  _393
REMARK  165  A    between atoms: _392  and  _395
REMARK  166  A    between atoms: _395  and  _396
REMARK  167  A    between atoms: _399  and  _401
REMARK  168  A    between atoms: _401  and  _402
REMARK  169  A    between atoms: _401  and  _404
REMARK  170  A    between atoms: _404  and  _405
REMARK  171  A    between atoms: _408  and  _410
REMARK  172  A    between atoms: _410  and  _411
REMARK  173  A    between atoms: _410  and  _413
REMARK  174  A    between atoms: _413  and  _414
REMARK  175  A    between atoms: _414  and  _415
REMARK  176  A    between atoms: _418  and  _420
REMARK  177  A    between atoms: _420  and  _421
REMARK  178  A    between atoms: _420  and  _423
REMARK  179  A    between atoms: _423  and  _424
REMARK  180  A    between atoms: _426  and  _428
REMARK  181  A    between atoms: _428  and  _429
REMARK  182  A    between atoms: _428  and  _431
REMARK  183  A    between atoms: _431  and  _432
REMARK  184  A    between atoms: _435  and  _437
REMARK  185  A    between atoms: _437  and  _438
REMARK  186  A    between atoms: _437  and  _440
REMARK  187  A    between atoms: _440  and  _441
REMARK  188  A    between atoms: _441  and  _442
REMARK  189  A    between atoms: _444  and  _446
REMARK  190  A    between atoms: _446  and  _447
REMARK  191  A    between atoms: _446  and  _449
REMARK  192  A    between atoms: _449  and  _450
REMARK  193  A    between atoms: _455  and  _457
REMARK  194  A    between atoms: _457  and  _458
REMARK  195  A    between atoms: _457  and  _460
REMARK  196  A    between atoms: _460  and  _461
REMARK  197  A    between atoms: _461  and  _462
REMARK  198  A    between atoms: _465  and  _467
REMARK  199  A    between atoms: _467  and  _468
REMARK  200  A    between atoms: _467  and  _470
REMARK  201  A    between atoms: _470  and  _471
REMARK  202  A    between atoms: _476  and  _477
REMARK  203  A    between atoms: _479  and  _481
REMARK  204  A    between atoms: _481  and  _482
REMARK  205  A    between atoms: _481  and  _484
REMARK  206  A    between atoms: _484  and  _485
REMARK  207  A    between atoms: _488  and  _490
REMARK  208  A    between atoms: _490  and  _491
REMARK  209  A    between atoms: _490  and  _493
REMARK  210  A    between atoms: _493  and  _494
REMARK  211  A    between atoms: _494  and  _495
REMARK  212  A    between atoms: _495  and  _496
REMARK  213  A    between atoms: _496  and  _497
REMARK  214  A    between atoms: _501  and  _503
REMARK  215  A    between atoms: _503  and  _504
REMARK  216  A    between atoms: _506  and  _508
REMARK  217  A    between atoms: _508  and  _509
REMARK  218  A    between atoms: _508  and  _511
REMARK  219  A    between atoms: _511  and  _512
REMARK  220  A    between atoms: _517  and  _518
REMARK  221  A    between atoms: _520  and  _522
REMARK  222  A    between atoms: _522  and  _523
REMARK  223  A    between atoms: _525  and  _527
REMARK  224  A    between atoms: _527  and  _528
REMARK  225  A    between atoms: _527  and  _530
REMARK  226  A    between atoms: _530  and  _531
REMARK                            x       y       z     vdW  Elec       q    Type
REMARK                         _______ _______ _______ _____ _____    ______ ____
ROOT
ATOM      1  C   GLY A   2      -9.310  19.481  60.090  0.00  0.00    +0.243 C 
ATOM      2  O   GLY A   2      -9.966  20.518  60.148  0.00  0.00    -0.273 OA
ATOM      3  N   ILE A   3      -9.143  18.791  58.968  0.00  0.00    -0.297 N 
ATOM      4  H   ILE A   3      -8.483  17.987  58.962  0.00  0.00    +0.150 HD
ENDROOT
BRANCH   1   5
ATOM      5  CA  GLY A   2      -8.636  18.930  61.326  0.00  0.00    +0.176 C 
BRANCH   5   8
ATOM      6  C   LEU A   1      -7.741  19.859  63.378  0.00  0.00    +0.238 C 
ATOM      7  O   LEU A   1      -7.036  18.870  63.593  0.00  0.00    -0.274 OA
ATOM      8  N   GLY A   2      -8.575  19.950  62.354  0.00  0.00    -0.296 N 
ATOM      9  H   GLY A   2      -9.203  20.776  62.285  0.00  0.00    +0.150 HD
BRANCH   6  10
ATOM     10  CA  LEU A   1      -7.689  21.086  64.284  0.00  0.00    +0.145 C 
BRANCH  10  11
ATOM     11  N   LEU A   1      -6.771  20.895  65.399  0.00  0.00    -0.238 NA
ATOM     12  H   LEU A   1      -6.055  20.143  65.348  0.00  0.00    +0.142 HD
ENDBRANCH  10  11
BRANCH  10  13
ATOM     13  CB  LEU A   1      -7.263  22.280  63.433  0.00  0.00    +0.026 C 
BRANCH  13  14
ATOM     14  CG  LEU A   1      -6.011  22.015  62.585  0.00  0.00    +0.002 C 
ATOM     15  CD2 LEU A   1      -4.739  22.338  63.372  0.00  0.00    +0.000 C 
ATOM     16  CD1 LEU A   1      -6.053  22.759  61.257  0.00  0.00    +0.000 C 
ENDBRANCH  13  14
ENDBRANCH  10  13
ENDBRANCH   6  10
ENDBRANCH   5   8
ENDBRANCH   1   5
BRANCH   3  17
ATOM     17  CA  ILE A   3      -9.858  19.129  57.747  0.00  0.00    +0.149 C 
BRANCH  17  18
ATOM     18  C   ILE A   3     -11.357  18.954  57.991  0.00  0.00    +0.241 C 
ATOM     19  O   ILE A   3     -11.780  18.006  58.650  0.00  0.00    -0.273 OA
ATOM     20  N   SER A   4     -12.155  19.888  57.483  0.00  0.00    -0.296 N 
ATOM     21  H   SER A   4     -11.748  20.618  56.864  0.00  0.00    +0.150 HD
BRANCH  20  22
ATOM     22  CA  SER A   4     -13.588  19.917  57.770  0.00  0.00    +0.166 C 
BRANCH  22  23
ATOM     23  C   SER A   4     -14.374  20.471  56.595  0.00  0.00    +0.229 C 
ATOM     24  O   SER A   4     -13.822  21.121  55.707  0.00  0.00    -0.286 OA
ENDBRANCH  22  23
BRANCH  22  25
ATOM     25  CB  SER A   4     -13.878  20.778  59.006  0.00  0.00    +0.165 C 
BRANCH  25  26
ATOM     26  OG  SER A   4     -13.707  22.147  58.699  0.00  0.00    -0.380 OA
ATOM     27  H   SER A   4     -12.775  22.304  58.406  0.00  0.00    +0.211 HD
ENDBRANCH  25  26
ENDBRANCH  22  25
ENDBRANCH  20  22
ENDBRANCH  17  18
BRANCH  17  28
ATOM     28  CB  ILE A   3      -9.370  18.252  56.560  0.00  0.00    +0.027 C 
ATOM     29  CG2 ILE A   3     -10.304  18.370  55.365  0.00  0.00    +0.002 C 
BRANCH  28  30
ATOM     30  CG1 ILE A   3      -7.939  18.650  56.176  0.00  0.00    +0.002 C 
ATOM     31  CD1 ILE A   3      -7.243  17.657  55.246  0.00  0.00    +0.000 C 
ENDBRANCH  28  30
ENDBRANCH  17  28
ENDBRANCH   3  17
TORSDOF 14
REMARK  Name = ../refined-set-2016/3tza/3tza_pocket.pdb
REMARK  226 active torsions:
REMARK  status: ('A' for Active; 'I' for Inactive)
REMARK    1  A    between atoms: _1  and  _3
REMARK    2  A    between atoms: _3  and  _4
REMARK    3  A    between atoms: _3  and  _6
REMARK    4  A    between atoms: _6  and  _7
REMARK    5  A    between atoms: _10  and  _12
REMARK    6  A    between atoms: _12  and  _13
REMARK    7  A    between atoms: _12  and  _15
REMARK    8  A    between atoms: _15  and  _16
REMARK    9  A    between atoms: _16  and  _17
REMARK   10  A    between atoms: _20  and  _22
REMARK   11  A    between atoms: _22  and  _23
REMARK   12  A    between atoms: _22  and  _25
REMARK   13  A    between atoms: _25  and  _26
REMARK   14  A    between atoms: _29  and  _30
REMARK   15  A    between atoms: _35  and  _37
REMARK   16  A    between atoms: _37  and  _38
REMARK   17  A    between atoms: _37  and  _40
REMARK   18  A    between atoms: _40  and  _41
REMARK   19  A    between atoms: _46  and  _47
REMARK   20  A    between atoms: _49  and  _51
REMARK   21  A    between atoms: _51  and  _52
REMARK   22  A    between atoms: _51  and  _54
REMARK   23  A    between atoms: _54  and  _55
REMARK   24  A    between atoms: _55  and  _56
REMARK   25  A    between atoms: _56  and  _57
REMARK   26  A    between atoms: _57  and  _58
REMARK   27  A    between atoms: _62  and  _64
REMARK   28  A    between atoms: _64  and  _65
REMARK   29  A    between atoms: _64  and  _67
REMARK   30  A    between atoms: _67  and  _68
REMARK   31  A    between atoms: _73  and  _74
REMARK   32  A    between atoms: _76  and  _78
REMARK   33  A    between atoms: _78  and  _79
REMARK   34  A    between atoms: _81  and  _83
REMARK   35  A    between atoms: _83  and  _84
REMARK   36  A    between atoms: _87  and  _89
REMARK   37  A    between atoms: _89  and  _90
REMARK   38  A    between atoms: _89  and  _92
REMARK   39  A    between atoms: _92  and  _93
REMARK   40  A    between atoms: _93  and  _94
REMARK   41  A    between atoms: _96  and  _98
REMARK   42  A    between atoms: _98  and  _99
REMARK   43  A    between atoms: _98  and  _101
REMARK   44  A    between atoms: _104  and  _106
REMARK   45  A    between atoms: _106  and  _107
REMARK   46  A    between atoms: _111  and  _112
REMARK   47  A    between atoms: _117  and  _119
REMARK   48  A    between atoms: _119  and  _120
REMARK   49  A    between atoms: _119  and  _122
REMARK   50  A    between atoms: _122  and  _123
REMARK   51  A    between atoms: _126  and  _128
REMARK   52  A    between atoms: _128  and  _129
REMARK   53  A    between atoms: _128  and  _131
REMARK   54  A    between atoms: _131  and  _132
REMARK   55  A    between atoms: _135  and  _137
REMARK   56  A    between atoms: _137  and  _138
REMARK   57  A    between atoms: _137  and  _140
REMARK   58  A    between atoms: _140  and  _141
REMARK   59  A    between atoms: _144  and  _146
REMARK   60  A    between atoms: _146  and  _147
REMARK   61  A    between atoms: _146  and  _149
REMARK   62  A    between atoms: _149  and  _150
REMARK   63  A    between atoms: _153  and  _155
REMARK   64  A    between atoms: _155  and  _156
REMARK   65  A    between atoms: _155  and  _158
REMARK   66  A    between atoms: _158  and  _159
REMARK   67  A    between atoms: _159  and  _160
REMARK   68  A    between atoms: _160  and  _161
REMARK   69  A    between atoms: _170  and  _172
REMARK   70  A    between atoms: _172  and  _173
REMARK   71  A    between atoms: _172  and  _175
REMARK   72  A    between atoms: _175  and  _176
REMARK   73  A    between atoms: _182  and  _184
REMARK   74  A    between atoms: _184  and  _185
REMARK   75  A    between atoms: _184  and  _187
REMARK   76  A    between atoms: _187  and  _188
REMARK   77  A    between atoms: _191  and  _193
REMARK   78  A    between atoms: _193  and  _194
REMARK   79  A    between atoms: _196  and  _198
REMARK   80  A    between atoms: _198  and  _199
REMARK   81  A    between atoms: _198  and  _201
REMARK   82  A    between atoms: _201  and  _202
REMARK   83  A    between atoms: _205  and  _207
REMARK   84  A    between atoms: _207  and  _208
REMARK   85  A    between atoms: _207  and  _210
REMARK   86  A    between atoms: _210  and  _211
REMARK   87  A    between atoms: _213  and  _215
REMARK   88  A    between atoms: _215  and  _216
REMARK   89  A    between atoms: _215  and  _218
REMARK   90  A    between atoms: _218  and  _219
REMARK   91  A    between atoms: _219  and  _220
REMARK   92  A    between atoms: _222  and  _224
REMARK   93  A    between atoms: _224  and  _225
REMARK   94  A    between atoms: _224  and  _227
REMARK   95  A    between atoms: _227  and  _228
REMARK   96  A    between atoms: _231  and  _233
REMARK   97  A    between atoms: _233  and  _234
REMARK   98  A    between atoms: _233  and  _236
REMARK   99  A    between atoms: _236  and  _237
REMARK  100  A    between atoms: _240  and  _242
REMARK  101  A    between atoms: _242  and  _243
REMARK  102  A    between atoms: _242  and  _245
REMARK  103  A    between atoms: _245  and  _246
REMARK  104  A    between atoms: _249  and  _251
REMARK  105  A    between atoms: _251  and  _252
REMARK  106  A    between atoms: _251  and  _254
REMARK  107  A    between atoms: _254  and  _255
REMARK  108  A    between atoms: _257  and  _259
REMARK  109  A    between atoms: _259  and  _260
REMARK  110  A    between atoms: _262  and  _264
REMARK  111  A    between atoms: _264  and  _265
REMARK  112  A    between atoms: _264  and  _267
REMARK  113  A    between atoms: _267  and  _268
REMARK  114  A    between atoms: _270  and  _272
REMARK  115  A    between atoms: _272  and  _273
REMARK  116  A    between atoms: _272  and  _275
REMARK  117  A    between atoms: _275  and  _276
REMARK  118  A    between atoms: _279  and  _281
REMARK  119  A    between atoms: _281  and  _282
REMARK  120  A    between atoms: _281  and  _284
REMARK  121  A    between atoms: _284  and  _285
REMARK  122  A    between atoms: _285  and  _286
REMARK  123  A    between atoms: _286  and  _287
REMARK  124  A    between atoms: _287  and  _288
REMARK  125  A    between atoms: _292  and  _294
REMARK  126  A    between atoms: _294  and  _295
REMARK  127  A    between atoms: _294  and  _297
REMARK  128  A    between atoms: _297  and  _298
REMARK  129  A    between atoms: _298  and  _299
REMARK  130  A    between atoms: _302  and  _304
REMARK  131  A    between atoms: _304  and  _305
REMARK  132  A    between atoms: _304  and  _307
REMARK  133  A    between atoms: _307  and  _308
REMARK  134  A    between atoms: _314  and  _316
REMARK  135  A    between atoms: _316  and  _317
REMARK  136  A    between atoms: _316  and  _319
REMARK  137  A    between atoms: _322  and  _324
REMARK  138  A    between atoms: _324  and  _325
REMARK  139  A    between atoms: _324  and  _327
REMARK  140  A    between atoms: _327  and  _328
REMARK  141  A    between atoms: _328  and  _329
REMARK  142  A    between atoms: _329  and  _330
REMARK  143  A    between atoms: _339  and  _341
REMARK  144  A    between atoms: _341  and  _342
REMARK  145  A    between atoms: _341  and  _344
REMARK  146  A    between atoms: _344  and  _345
REMARK  147  A    between atoms: _348  and  _350
REMARK  148  A    between atoms: _350  and  _351
REMARK  149  A    between atoms: _350  and  _353
REMARK  150  A    between atoms: _353  and  _354
REMARK  151  A    between atoms: _357  and  _359
REMARK  152  A    between atoms: _359  and  _360
REMARK  153  A    between atoms: _363  and  _365
REMARK  154  A    between atoms: _365  and  _366
REMARK  155  A    between atoms: _368  and  _370
REMARK  156  A    between atoms: _370  and  _371
REMARK  157  A    between atoms: _370  and  _373
REMARK  158  A    between atoms: _376  and  _378
REMARK  159  A    between atoms: _378  and  _379
REMARK  160  A    between atoms: _378  and  _381
REMARK  161  A    between atoms: _381  and  _382
REMARK  162  A    between atoms: _387  and  _388
REMARK  163  A    between atoms: _390  and  _392
REMARK  164  A    between atoms: _392  and  _393
REMARK  165  A    between atoms: _392  and  _395
REMARK  166  A    between atoms: _395  and  _396
REMARK  167  A    between atoms: _399  and  _401
REMARK  168  A    between atoms: _401  and  _402
REMARK  169  A    between atoms: _401  and  _404
REMARK  170  A    between atoms: _404  and  _405
REMARK  171  A    between atoms: _408  and  _410
REMARK  172  A    between atoms: _410  and  _411
REMARK  173  A    between atoms: _410  and  _413
REMARK  174  A    between atoms: _413  and  _414
REMARK  175  A    between atoms: _414  and  _415
REMARK  176  A    between atoms: _418  and  _420
REMARK  177  A    between atoms: _420  and  _421
REMARK  178  A    between atoms: _420  and  _423
REMARK  179  A    between atoms: _423  and  _424
REMARK  180  A    between atoms: _426  and  _428
REMARK  181  A    between atoms: _428  and  _429
REMARK  182  A    between atoms: _428  and  _431
REMARK  183  A    between atoms: _431  and  _432
REMARK  184  A    between atoms: _435  and  _437
REMARK  185  A    between atoms: _437  and  _438
REMARK  186  A    between atoms: _437  and  _440
REMARK  187  A    between atoms: _440  and  _441
REMARK  188  A    between atoms: _441  and  _442
REMARK  189  A    between atoms: _444  and  _446
REMARK  190  A    between atoms: _446  and  _447
REMARK  191  A    between atoms: _446  and  _449
REMARK  192  A    between atoms: _449  and  _450
REMARK  193  A    between atoms: _455  and  _457
REMARK  194  A    between atoms: _457  and  _458
REMARK  195  A    between atoms: _457  and  _460
REMARK  196  A    between atoms: _460  and  _461
REMARK  197  A    between atoms: _461  and  _462
REMARK  198  A    between atoms: _465  and  _467
REMARK  199  A    between atoms: _467  and  _468
REMARK  200  A    between atoms: _467  and  _470
REMARK  201  A    between atoms: _470  and  _471
REMARK  202  A    between atoms: _476  and  _477
REMARK  203  A    between atoms: _479  and  _481
REMARK  204  A    between atoms: _481  and  _482
REMARK  205  A    between atoms: _481  and  _484
REMARK  206  A    between atoms: _484  and  _485
REMARK  207  A    between atoms: _488  and  _490
REMARK  208  A    between atoms: _490  and  _491
REMARK  209  A    between atoms: _490  and  _493
REMARK  210  A    between atoms: _493  and  _494
REMARK  211  A    between atoms: _494  and  _495
REMARK  212  A    between atoms: _495  and  _496
REMARK  213  A    between atoms: _496  and  _497
REMARK  214  A    between atoms: _501  and  _503
REMARK  215  A    between atoms: _503  and  _504
REMARK  216  A    between atoms: _506  and  _508
REMARK  217  A    between atoms: _508  and  _509
REMARK  218  A    between atoms: _508  and  _511
REMARK  219  A    between atoms: _511  and  _512
REMARK  220  A    between atoms: _517  and  _518
REMARK  221  A    between atoms: _520  and  _522
REMARK  222  A    between atoms: _522  and  _523
REMARK  223  A    between atoms: _525  and  _527
REMARK  224  A    between atoms: _527  and  _528
REMARK  225  A    between atoms: _527  and  _530
REMARK  226  A    between atoms: _530  and  _531
REMARK                            x       y       z     vdW  Elec       q    Type
REMARK                         _______ _______ _______ _____ _____    ______ ____
ROOT
ATOM      1  CA  MET A   1     -18.023  24.116  55.082  0.00  0.00    +0.134 C 
ENDROOT
BRANCH   1   2
ATOM      2  N   MET A   1     -17.209  22.906  54.983  0.00  0.00    -0.239 NA
ATOM      3  H   MET A   1     -16.531  22.817  54.199  0.00  0.00    +0.142 HD
ENDBRANCH   1   2
BRANCH   1   4
ATOM      4  C   MET A   1     -19.157  24.053  54.063  0.00  0.00    +0.224 C 
ATOM      5  O   MET A   1     -18.927  23.808  52.887  0.00  0.00    -0.287 OA
ENDBRANCH   1   4
BRANCH   1   6
ATOM      6  CB  MET A   1     -17.179  25.375  54.844  0.00  0.00    +0.037 C 
BRANCH   6   7
ATOM      7  CG  MET A   1     -18.022  26.646  54.691  0.00  0.00    +0.059 C 
BRANCH   7   8
ATOM      8  SD  MET A   1     -17.069  28.121  54.297  0.00  0.00    -0.139 S 
ATOM      9  CE  MET A   1     -16.013  28.264  55.733  0.00  0.00    +0.069 C 
ENDBRANCH   7   8
ENDBRANCH   6   7
ENDBRANCH   1   6
TORSDOF 5
REMARK  Name = ../refined-set-2016/3tza/3tza_pocket.pdb
REMARK  226 active torsions:
REMARK  status: ('A' for Active; 'I' for Inactive)
REMARK    1  A    between atoms: _1  and  _3
REMARK    2  A    between atoms: _3  and  _4
REMARK    3  A    between atoms: _3  and  _6
REMARK    4  A    between atoms: _6  and  _7
REMARK    5  A    between atoms: _10  and  _12
REMARK    6  A    between atoms: _12  and  _13
REMARK    7  A    between atoms: _12  and  _15
REMARK    8  A    between atoms: _15  and  _16
REMARK    9  A    between atoms: _16  and  _17
REMARK   10  A    between atoms: _20  and  _22
REMARK   11  A    between atoms: _22  and  _23
REMARK   12  A    between atoms: _22  and  _25
REMARK   13  A    between atoms: _25  and  _26
REMARK   14  A    between atoms: _29  and  _30
REMARK   15  A    between atoms: _35  and  _37
REMARK   16  A    between atoms: _37  and  _38
REMARK   17  A    between atoms: _37  and  _40
REMARK   18  A    between atoms: _40  and  _41
REMARK   19  A    between atoms: _46  and  _47
REMARK   20  A    between atoms: _49  and  _51
REMARK   21  A    between atoms: _51  and  _52
REMARK   22  A    between atoms: _51  and  _54
REMARK   23  A    between atoms: _54  and  _55
REMARK   24  A    between atoms: _55  and  _56
REMARK   25  A    between atoms: _56  and  _57
REMARK   26  A    between atoms: _57  and  _58
REMARK   27  A    between atoms: _62  and  _64
REMARK   28  A    between atoms: _64  and  _65
REMARK   29  A    between atoms: _64  and  _67
REMARK   30  A    between atoms: _67  and  _68
REMARK   31  A    between atoms: _73  and  _74
REMARK   32  A    between atoms: _76  and  _78
REMARK   33  A    between atoms: _78  and  _79
REMARK   34  A    between atoms: _81  and  _83
REMARK   35  A    between atoms: _83  and  _84
REMARK   36  A    between atoms: _87  and  _89
REMARK   37  A    between atoms: _89  and  _90
REMARK   38  A    between atoms: _89  and  _92
REMARK   39  A    between atoms: _92  and  _93
REMARK   40  A    between atoms: _93  and  _94
REMARK   41  A    between atoms: _96  and  _98
REMARK   42  A    between atoms: _98  and  _99
REMARK   43  A    between atoms: _98  and  _101
REMARK   44  A    between atoms: _104  and  _106
REMARK   45  A    between atoms: _106  and  _107
REMARK   46  A    between atoms: _111  and  _112
REMARK   47  A    between atoms: _117  and  _119
REMARK   48  A    between atoms: _119  and  _120
REMARK   49  A    between atoms: _119  and  _122
REMARK   50  A    between atoms: _122  and  _123
REMARK   51  A    between atoms: _126  and  _128
REMARK   52  A    between atoms: _128  and  _129
REMARK   53  A    between atoms: _128  and  _131
REMARK   54  A    between atoms: _131  and  _132
REMARK   55  A    between atoms: _135  and  _137
REMARK   56  A    between atoms: _137  and  _138
REMARK   57  A    between atoms: _137  and  _140
REMARK   58  A    between atoms: _140  and  _141
REMARK   59  A    between atoms: _144  and  _146
REMARK   60  A    between atoms: _146  and  _147
REMARK   61  A    between atoms: _146  and  _149
REMARK   62  A    between atoms: _149  and  _150
REMARK   63  A    between atoms: _153  and  _155
REMARK   64  A    between atoms: _155  and  _156
REMARK   65  A    between atoms: _155  and  _158
REMARK   66  A    between atoms: _158  and  _159
REMARK   67  A    between atoms: _159  and  _160
REMARK   68  A    between atoms: _160  and  _161
REMARK   69  A    between atoms: _170  and  _172
REMARK   70  A    between atoms: _172  and  _173
REMARK   71  A    between atoms: _172  and  _175
REMARK   72  A    between atoms: _175  and  _176
REMARK   73  A    between atoms: _182  and  _184
REMARK   74  A    between atoms: _184  and  _185
REMARK   75  A    between atoms: _184  and  _187
REMARK   76  A    between atoms: _187  and  _188
REMARK   77  A    between atoms: _191  and  _193
REMARK   78  A    between atoms: _193  and  _194
REMARK   79  A    between atoms: _196  and  _198
REMARK   80  A    between atoms: _198  and  _199
REMARK   81  A    between atoms: _198  and  _201
REMARK   82  A    between atoms: _201  and  _202
REMARK   83  A    between atoms: _205  and  _207
REMARK   84  A    between atoms: _207  and  _208
REMARK   85  A    between atoms: _207  and  _210
REMARK   86  A    between atoms: _210  and  _211
REMARK   87  A    between atoms: _213  and  _215
REMARK   88  A    between atoms: _215  and  _216
REMARK   89  A    between atoms: _215  and  _218
REMARK   90  A    between atoms: _218  and  _219
REMARK   91  A    between atoms: _219  and  _220
REMARK   92  A    between atoms: _222  and  _224
REMARK   93  A    between atoms: _224  and  _225
REMARK   94  A    between atoms: _224  and  _227
REMARK   95  A    between atoms: _227  and  _228
REMARK   96  A    between atoms: _231  and  _233
REMARK   97  A    between atoms: _233  and  _234
REMARK   98  A    between atoms: _233  and  _236
REMARK   99  A    between atoms: _236  and  _237
REMARK  100  A    between atoms: _240  and  _242
REMARK  101  A    between atoms: _242  and  _243
REMARK  102  A    between atoms: _242  and  _245
REMARK  103  A    between atoms: _245  and  _246
REMARK  104  A    between atoms: _249  and  _251
REMARK  105  A    between atoms: _251  and  _252
REMARK  106  A    between atoms: _251  and  _254
REMARK  107  A    between atoms: _254  and  _255
REMARK  108  A    between atoms: _257  and  _259
REMARK  109  A    between atoms: _259  and  _260
REMARK  110  A    between atoms: _262  and  _264
REMARK  111  A    between atoms: _264  and  _265
REMARK  112  A    between atoms: _264  and  _267
REMARK  113  A    between atoms: _267  and  _268
REMARK  114  A    between atoms: _270  and  _272
REMARK  115  A    between atoms: _272  and  _273
REMARK  116  A    between atoms: _272  and  _275
REMARK  117  A    between atoms: _275  and  _276
REMARK  118  A    between atoms: _279  and  _281
REMARK  119  A    between atoms: _281  and  _282
REMARK  120  A    between atoms: _281  and  _284
REMARK  121  A    between atoms: _284  and  _285
REMARK  122  A    between atoms: _285  and  _286
REMARK  123  A    between atoms: _286  and  _287
REMARK  124  A    between atoms: _287  and  _288
REMARK  125  A    between atoms: _292  and  _294
REMARK  126  A    between atoms: _294  and  _295
REMARK  127  A    between atoms: _294  and  _297
REMARK  128  A    between atoms: _297  and  _298
REMARK  129  A    between atoms: _298  and  _299
REMARK  130  A    between atoms: _302  and  _304
REMARK  131  A    between atoms: _304  and  _305
REMARK  132  A    between atoms: _304  and  _307
REMARK  133  A    between atoms: _307  and  _308
REMARK  134  A    between atoms: _314  and  _316
REMARK  135  A    between atoms: _316  and  _317
REMARK  136  A    between atoms: _316  and  _319
REMARK  137  A    between atoms: _322  and  _324
REMARK  138  A    between atoms: _324  and  _325
REMARK  139  A    between atoms: _324  and  _327
REMARK  140  A    between atoms: _327  and  _328
REMARK  141  A    between atoms: _328  and  _329
REMARK  142  A    between atoms: _329  and  _330
REMARK  143  A    between atoms: _339  and  _341
REMARK  144  A    between atoms: _341  and  _342
REMARK  145  A    between atoms: _341  and  _344
REMARK  146  A    between atoms: _344  and  _345
REMARK  147  A    between atoms: _348  and  _350
REMARK  148  A    between atoms: _350  and  _351
REMARK  149  A    between atoms: _350  and  _353
REMARK  150  A    between atoms: _353  and  _354
REMARK  151  A    between atoms: _357  and  _359
REMARK  152  A    between atoms: _359  and  _360
REMARK  153  A    between atoms: _363  and  _365
REMARK  154  A    between atoms: _365  and  _366
REMARK  155  A    between atoms: _368  and  _370
REMARK  156  A    between atoms: _370  and  _371
REMARK  157  A    between atoms: _370  and  _373
REMARK  158  A    between atoms: _376  and  _378
REMARK  159  A    between atoms: _378  and  _379
REMARK  160  A    between atoms: _378  and  _381
REMARK  161  A    between atoms: _381  and  _382
REMARK  162  A    between atoms: _387  and  _388
REMARK  163  A    between atoms: _390  and  _392
REMARK  164  A    between atoms: _392  and  _393
REMARK  165  A    between atoms: _392  and  _395
REMARK  166  A    between atoms: _395  and  _396
REMARK  167  A    between atoms: _399  and  _401
REMARK  168  A    between atoms: _401  and  _402
REMARK  169  A    between atoms: _401  and  _404
REMARK  170  A    between atoms: _404  and  _405
REMARK  171  A    between atoms: _408  and  _410
REMARK  172  A    between atoms: _410  and  _411
REMARK  173  A    between atoms: _410  and  _413
REMARK  174  A    between atoms: _413  and  _414
REMARK  175  A    between atoms: _414  and  _415
REMARK  176  A    between atoms: _418  and  _420
REMARK  177  A    between atoms: _420  and  _421
REMARK  178  A    between atoms: _420  and  _423
REMARK  179  A    between atoms: _423  and  _424
REMARK  180  A    between atoms: _426  and  _428
REMARK  181  A    between atoms: _428  and  _429
REMARK  182  A    between atoms: _428  and  _431
REMARK  183  A    between atoms: _431  and  _432
REMARK  184  A    between atoms: _435  and  _437
REMARK  185  A    between atoms: _437  and  _438
REMARK  186  A    between atoms: _437  and  _440
REMARK  187  A    between atoms: _440  and  _441
REMARK  188  A    between atoms: _441  and  _442
REMARK  189  A    between atoms: _444  and  _446
REMARK  190  A    between atoms: _446  and  _447
REMARK  191  A    between atoms: _446  and  _449
REMARK  192  A    between atoms: _449  and  _450
REMARK  193  A    between atoms: _455  and  _457
REMARK  194  A    between atoms: _457  and  _458
REMARK  195  A    between atoms: _457  and  _460
REMARK  196  A    between atoms: _460  and  _461
REMARK  197  A    between atoms: _461  and  _462
REMARK  198  A    between atoms: _465  and  _467
REMARK  199  A    between atoms: _467  and  _468
REMARK  200  A    between atoms: _467  and  _470
REMARK  201  A    between atoms: _470  and  _471
REMARK  202  A    between atoms: _476  and  _477
REMARK  203  A    between atoms: _479  and  _481
REMARK  204  A    between atoms: _481  and  _482
REMARK  205  A    between atoms: _481  and  _484
REMARK  206  A    between atoms: _484  and  _485
REMARK  207  A    between atoms: _488  and  _490
REMARK  208  A    between atoms: _490  and  _491
REMARK  209  A    between atoms: _490  and  _493
REMARK  210  A    between atoms: _493  and  _494
REMARK  211  A    between atoms: _494  and  _495
REMARK  212  A    between atoms: _495  and  _496
REMARK  213  A    between atoms: _496  and  _497
REMARK  214  A    between atoms: _501  and  _503
REMARK  215  A    between atoms: _503  and  _504
REMARK  216  A    between atoms: _506  and  _508
REMARK  217  A    between atoms: _508  and  _509
REMARK  218  A    between atoms: _508  and  _511
REMARK  219  A    between atoms: _511  and  _512
REMARK  220  A    between atoms: _517  and  _518
REMARK  221  A    between atoms: _520  and  _522
REMARK  222  A    between atoms: _522  and  _523
REMARK  223  A    between atoms: _525  and  _527
REMARK  224  A    between atoms: _527  and  _528
REMARK  225  A    between atoms: _527  and  _530
REMARK  226  A    between atoms: _530  and  _531
REMARK                            x       y       z     vdW  Elec       q    Type
REMARK                         _______ _______ _______ _____ _____    ______ ____
ROOT
ATOM      1  CA  SER A   6      -1.955  20.791  52.551  0.00  0.00    +0.178 C 
ENDROOT
BRANCH   1   2
ATOM      2  C   SER A   6      -3.296  20.081  52.503  0.00  0.00    +0.243 C 
ATOM      3  O   SER A   6      -3.328  18.864  52.606  0.00  0.00    -0.273 OA
ATOM      4  N   THR A   7      -4.403  20.813  52.366  0.00  0.00    -0.295 N 
ATOM      5  H   THR A   7      -4.345  21.849  52.299  0.00  0.00    +0.150 HD
BRANCH   4   6
ATOM      6  CA  THR A   7      -5.694  20.140  52.311  0.00  0.00    +0.176 C 
BRANCH   6   7
ATOM      7  C   THR A   7      -5.801  19.349  51.014  0.00  0.00    +0.243 C 
ATOM      8  O   THR A   7      -6.214  18.191  51.025  0.00  0.00    -0.273 OA
ATOM      9  N   LYS A   8      -5.411  19.969  49.901  0.00  0.00    -0.297 N 
ATOM     10  H   LYS A   8      -5.086  20.956  49.952  0.00  0.00    +0.150 HD
BRANCH   9  11
ATOM     11  CA  LYS A   8      -5.433  19.284  48.608  0.00  0.00    +0.149 C 
BRANCH  11  12
ATOM     12  C   LYS A   8      -4.505  18.078  48.638  0.00  0.00    +0.241 C 
ATOM     13  N   GLU A   9      -3.319  18.279  49.200  0.00  0.00    -0.297 N 
ATOM     14  H   GLU A   9      -3.081  19.228  49.553  0.00  0.00    +0.150 HD
ATOM     15  O   LYS A   8      -4.859  16.993  48.180  0.00  0.00    -0.273 OA
BRANCH  13  16
ATOM     16  CA  GLU A   9      -2.342  17.209  49.336  0.00  0.00    +0.149 C 
BRANCH  16  17
ATOM     17  C   GLU A   9      -2.852  16.063  50.217  0.00  0.00    +0.241 C 
ATOM     18  N   PHE A  10      -3.640  16.387  51.242  0.00  0.00    -0.298 N 
ATOM     19  H   PHE A  10      -3.825  17.390  51.446  0.00  0.00    +0.150 HD
ATOM     20  O   GLU A   9      -2.524  14.900  49.974  0.00  0.00    -0.273 OA
BRANCH  18  21
ATOM     21  CA  PHE A  10      -4.250  15.359  52.085  0.00  0.00    +0.141 C 
BRANCH  21  22
ATOM     22  C   PHE A  10      -5.068  14.392  51.241  0.00  0.00    +0.227 C 
ATOM     23  O   PHE A  10      -4.951  13.177  51.396  0.00  0.00    -0.286 OA
ENDBRANCH  21  22
BRANCH  21  24
ATOM     24  CB  PHE A  10      -5.147  15.975  53.168  0.00  0.00    +0.054 C 
BRANCH  24  25
ATOM     25  CG  PHE A  10      -5.980  14.961  53.917  0.00  0.00    -0.020 A 
ATOM     26  CD2 PHE A  10      -5.446  14.255  54.983  0.00  0.00    -0.004 A 
ATOM     27  CE2 PHE A  10      -6.202  13.311  55.665  0.00  0.00    -0.000 A 
ATOM     28  CZ  PHE A  10      -7.502  13.072  55.282  0.00  0.00    -0.000 A 
ATOM     29  CE1 PHE A  10      -8.045  13.766  54.222  0.00  0.00    -0.000 A 
ATOM     30  CD1 PHE A  10      -7.284  14.700  53.540  0.00  0.00    -0.004 A 
ENDBRANCH  24  25
ENDBRANCH  21  24
ENDBRANCH  18  21
ENDBRANCH  16  17
BRANCH  16  31
ATOM     31  CB  GLU A   9      -1.026  17.766  49.889  0.00  0.00    +0.041 C 
BRANCH  31  32
ATOM     32  CG  GLU A   9       0.021  16.710  50.185  0.00  0.00    +0.116 C 
BRANCH  32  33
ATOM     33  CD  GLU A   9       0.717  16.202  48.934  0.00  0.00    +0.365 C 
ATOM     34  OE2 GLU A   9       1.618  15.349  49.070  0.00  0.00    -0.246 OA
ATOM     35  OE1 GLU A   9       0.372  16.659  47.821  0.00  0.00    -0.246 OA
ENDBRANCH  32  33
ENDBRANCH  31  32
ENDBRANCH  16  31
ENDBRANCH  13  16
ENDBRANCH  11  12
BRANCH  11  36
ATOM     36  CB  LYS A   8      -5.036  20.229  47.469  0.00  0.00    +0.029 C 
BRANCH  36  37
ATOM     37  CG  LYS A   8      -5.094  19.571  46.085  0.00  0.00    +0.000 C 
BRANCH  37  38
ATOM     38  CD  LYS A   8      -4.685  20.546  44.993  0.00  0.00    -0.024 C 
BRANCH  38  39
ATOM     39  CE  LYS A   8      -5.149  20.062  43.629  0.00  0.00    -0.086 C 
BRANCH  39  40
ATOM     40  NZ  LYS A   8      -4.556  20.886  42.538  0.00  0.00    +0.380 N 
ATOM     41  HZ1 LYS A   8      -4.847  21.877  42.657  0.00  0.00    -0.089 HD
ATOM     42  HZ2 LYS A   8      -3.519  20.820  42.580  0.00  0.00    -0.089 HD
ATOM     43  HZ3 LYS A   8      -4.890  20.533  41.618  0.00  0.00    -0.089 HD
ENDBRANCH  39  40
ENDBRANCH  38  39
ENDBRANCH  37  38
ENDBRANCH  36  37
ENDBRANCH  11  36
ENDBRANCH   9  11
ENDBRANCH   6   7
BRANCH   6  44
ATOM     44  CB  THR A   7      -6.904  21.108  52.454  0.00  0.00    +0.137 C 
ATOM     45  CG2 THR A   7      -8.215  20.338  52.247  0.00  0.00    +0.034 C 
BRANCH  44  46
ATOM     46  OG1 THR A   7      -6.913  21.673  53.769  0.00  0.00    -0.382 OA
ATOM     47  HG1 THR A   7      -6.071  22.173  53.918  0.00  0.00    +0.210 HD
ENDBRANCH  44  46
ENDBRANCH   6  44
ENDBRANCH   4   6
ENDBRANCH   1   2
BRANCH   1  49
ATOM     48  C   GLY A   5      -1.799  22.005  50.455  0.00  0.00    +0.243 C 
ATOM     49  N   SER A   6      -1.877  22.023  51.778  0.00  0.00    -0.295 N 
ATOM     50  H   SER A   6      -1.883  22.937  52.275  0.00  0.00    +0.150 HD
ATOM     51  O   GLY A   5      -2.055  21.010  49.781  0.00  0.00    -0.273 OA
BRANCH  48  52
ATOM     52  CA  GLY A   5      -1.382  23.310  49.808  0.00  0.00    +0.176 C 
BRANCH  52  55
ATOM     53  C   SER A   4      -2.638  23.716  47.796  0.00  0.00    +0.243 C 
ATOM     54  O   SER A   4      -3.655  23.963  48.443  0.00  0.00    -0.273 OA
ATOM     55  N   GLY A   5      -1.502  23.335  48.365  0.00  0.00    -0.295 N 
ATOM     56  H   GLY A   5      -0.695  23.053  47.773  0.00  0.00    +0.150 HD
BRANCH  53  57
ATOM     57  CA  SER A   4      -2.638  23.835  46.287  0.00  0.00    +0.178 C 
BRANCH  57  59
ATOM     58  C   ASP A   3      -4.400  24.110  44.624  0.00  0.00    +0.241 C 
ATOM     59  N   SER A   4      -3.964  24.262  45.869  0.00  0.00    -0.295 N 
ATOM     60  H   SER A   4      -4.593  24.702  46.570  0.00  0.00    +0.150 HD
ATOM     61  O   ASP A   3      -3.690  23.694  43.708  0.00  0.00    -0.273 OA
BRANCH  58  62
ATOM     62  CA  ASP A   3      -5.858  24.495  44.373  0.00  0.00    +0.160 C 
BRANCH  62  65
ATOM     63  C   LEU A   2      -6.921  24.364  46.575  0.00  0.00    +0.241 C 
ATOM     64  O   LEU A   2      -6.716  23.155  46.660  0.00  0.00    -0.273 OA
ATOM     65  N   ASP A   3      -6.500  25.099  45.546  0.00  0.00    -0.297 N 
ATOM     66  H   ASP A   3      -6.630  26.130  45.575  0.00  0.00    +0.150 HD
BRANCH  63  67
ATOM     67  CA  LEU A   2      -7.675  25.095  47.685  0.00  0.00    +0.149 C 
BRANCH  67  69
ATOM     68  C   THR A   1      -9.592  23.609  47.496  0.00  0.00    +0.241 C 
ATOM     69  N   LEU A   2      -8.670  24.200  48.252  0.00  0.00    -0.297 N 
ATOM     70  H   LEU A   2      -8.661  24.017  49.276  0.00  0.00    +0.150 HD
ATOM     71  O   THR A   1      -9.832  23.940  46.337  0.00  0.00    -0.274 OA
BRANCH  68  72
ATOM     72  CA  THR A   1     -10.341  22.462  48.147  0.00  0.00    +0.172 C 
BRANCH  72  73
ATOM     73  N   THR A   1     -11.323  21.953  47.211  0.00  0.00    -0.236 NA
ATOM     74  H   THR A   1     -11.041  21.828  46.218  0.00  0.00    +0.142 HD
ENDBRANCH  72  73
BRANCH  72  75
ATOM     75  CB  THR A   1      -9.283  21.384  48.489  0.00  0.00    +0.135 C 
ATOM     76  CG2 THR A   1      -9.947  20.095  48.945  0.00  0.00    +0.034 C 
BRANCH  75  77
ATOM     77  OG1 THR A   1      -8.486  21.110  47.325  0.00  0.00    -0.383 OA
ATOM     78  HG1 THR A   1      -8.031  21.940  47.035  0.00  0.00    +0.210 HD
ENDBRANCH  75  77
ENDBRANCH  72  75
ENDBRANCH  68  72
ENDBRANCH  67  69
BRANCH  67  79
ATOM     79  CB  LEU A   2      -6.689  25.523  48.769  0.00  0.00    +0.029 C 
BRANCH  79  80
ATOM     80  CG  LEU A   2      -5.848  26.754  48.453  0.00  0.00    +0.002 C 
ATOM     81  CD2 LEU A   2      -4.769  26.952  49.512  0.00  0.00    +0.000 C 
ATOM     82  CD1 LEU A   2      -6.760  27.968  48.374  0.00  0.00    +0.000 C 
ENDBRANCH  79  80
ENDBRANCH  67  79
ENDBRANCH  63  67
ENDBRANCH  62  65
BRANCH  62  83
ATOM     83  CB  ASP A   3      -5.945  25.422  43.160  0.00  0.00    +0.143 C 
BRANCH  83  84
ATOM     84  CG  ASP A   3      -5.836  24.669  41.843  0.00  0.00    +0.367 C 
ATOM     85  OD2 ASP A   3      -6.104  23.446  41.827  0.00  0.00    -0.246 OA
ATOM     86  OD1 ASP A   3      -5.493  25.297  40.821  0.00  0.00    -0.246 OA
ENDBRANCH  83  84
ENDBRANCH  62  83
ENDBRANCH  58  62
ENDBRANCH  57  59
BRANCH  57  87
ATOM     87  CB  SER A   4      -1.584  24.849  45.846  0.00  0.00    +0.166 C 
BRANCH  87  88
ATOM     88  OG  SER A   4      -1.884  26.136  46.362  0.00  0.00    -0.380 OA
ATOM     89  H   SER A   4      -1.900  26.098  47.351  0.00  0.00    +0.211 HD
ENDBRANCH  87  88
ENDBRANCH  57  87
ENDBRANCH  53  57
ENDBRANCH  52  55
ENDBRANCH  48  52
ENDBRANCH   1  49
BRANCH   1  90
ATOM     90  CB  SER A   6      -1.540  21.029  54.005  0.00  0.00    +0.166 C 
BRANCH  90  91
ATOM     91  OG  SER A   6      -2.497  21.813  54.680  0.00  0.00    -0.380 OA
ATOM     92  H   SER A   6      -3.370  21.347  54.670  0.00  0.00    +0.211 HD
ENDBRANCH  90  91
ENDBRANCH   1  90
TORSDOF 42
REMARK  Name = ../refined-set-2016/3tza/3tza_pocket.pdb
REMARK  226 active torsions:
REMARK  status: ('A' for Active; 'I' for Inactive)
REMARK    1  A    between atoms: _1  and  _3
REMARK    2  A    between atoms: _3  and  _4
REMARK    3  A    between atoms: _3  and  _6
REMARK    4  A    between atoms: _6  and  _7
REMARK    5  A    between atoms: _10  and  _12
REMARK    6  A    between atoms: _12  and  _13
REMARK    7  A    between atoms: _12  and  _15
REMARK    8  A    between atoms: _15  and  _16
REMARK    9  A    between atoms: _16  and  _17
REMARK   10  A    between atoms: _20  and  _22
REMARK   11  A    between atoms: _22  and  _23
REMARK   12  A    between atoms: _22  and  _25
REMARK   13  A    between atoms: _25  and  _26
REMARK   14  A    between atoms: _29  and  _30
REMARK   15  A    between atoms: _35  and  _37
REMARK   16  A    between atoms: _37  and  _38
REMARK   17  A    between atoms: _37  and  _40
REMARK   18  A    between atoms: _40  and  _41
REMARK   19  A    between atoms: _46  and  _47
REMARK   20  A    between atoms: _49  and  _51
REMARK   21  A    between atoms: _51  and  _52
REMARK   22  A    between atoms: _51  and  _54
REMARK   23  A    between atoms: _54  and  _55
REMARK   24  A    between atoms: _55  and  _56
REMARK   25  A    between atoms: _56  and  _57
REMARK   26  A    between atoms: _57  and  _58
REMARK   27  A    between atoms: _62  and  _64
REMARK   28  A    between atoms: _64  and  _65
REMARK   29  A    between atoms: _64  and  _67
REMARK   30  A    between atoms: _67  and  _68
REMARK   31  A    between atoms: _73  and  _74
REMARK   32  A    between atoms: _76  and  _78
REMARK   33  A    between atoms: _78  and  _79
REMARK   34  A    between atoms: _81  and  _83
REMARK   35  A    between atoms: _83  and  _84
REMARK   36  A    between atoms: _87  and  _89
REMARK   37  A    between atoms: _89  and  _90
REMARK   38  A    between atoms: _89  and  _92
REMARK   39  A    between atoms: _92  and  _93
REMARK   40  A    between atoms: _93  and  _94
REMARK   41  A    between atoms: _96  and  _98
REMARK   42  A    between atoms: _98  and  _99
REMARK   43  A    between atoms: _98  and  _101
REMARK   44  A    between atoms: _104  and  _106
REMARK   45  A    between atoms: _106  and  _107
REMARK   46  A    between atoms: _111  and  _112
REMARK   47  A    between atoms: _117  and  _119
REMARK   48  A    between atoms: _119  and  _120
REMARK   49  A    between atoms: _119  and  _122
REMARK   50  A    between atoms: _122  and  _123
REMARK   51  A    between atoms: _126  and  _128
REMARK   52  A    between atoms: _128  and  _129
REMARK   53  A    between atoms: _128  and  _131
REMARK   54  A    between atoms: _131  and  _132
REMARK   55  A    between atoms: _135  and  _137
REMARK   56  A    between atoms: _137  and  _138
REMARK   57  A    between atoms: _137  and  _140
REMARK   58  A    between atoms: _140  and  _141
REMARK   59  A    between atoms: _144  and  _146
REMARK   60  A    between atoms: _146  and  _147
REMARK   61  A    between atoms: _146  and  _149
REMARK   62  A    between atoms: _149  and  _150
REMARK   63  A    between atoms: _153  and  _155
REMARK   64  A    between atoms: _155  and  _156
REMARK   65  A    between atoms: _155  and  _158
REMARK   66  A    between atoms: _158  and  _159
REMARK   67  A    between atoms: _159  and  _160
REMARK   68  A    between atoms: _160  and  _161
REMARK   69  A    between atoms: _170  and  _172
REMARK   70  A    between atoms: _172  and  _173
REMARK   71  A    between atoms: _172  and  _175
REMARK   72  A    between atoms: _175  and  _176
REMARK   73  A    between atoms: _182  and  _184
REMARK   74  A    between atoms: _184  and  _185
REMARK   75  A    between atoms: _184  and  _187
REMARK   76  A    between atoms: _187  and  _188
REMARK   77  A    between atoms: _191  and  _193
REMARK   78  A    between atoms: _193  and  _194
REMARK   79  A    between atoms: _196  and  _198
REMARK   80  A    between atoms: _198  and  _199
REMARK   81  A    between atoms: _198  and  _201
REMARK   82  A    between atoms: _201  and  _202
REMARK   83  A    between atoms: _205  and  _207
REMARK   84  A    between atoms: _207  and  _208
REMARK   85  A    between atoms: _207  and  _210
REMARK   86  A    between atoms: _210  and  _211
REMARK   87  A    between atoms: _213  and  _215
REMARK   88  A    between atoms: _215  and  _216
REMARK   89  A    between atoms: _215  and  _218
REMARK   90  A    between atoms: _218  and  _219
REMARK   91  A    between atoms: _219  and  _220
REMARK   92  A    between atoms: _222  and  _224
REMARK   93  A    between atoms: _224  and  _225
REMARK   94  A    between atoms: _224  and  _227
REMARK   95  A    between atoms: _227  and  _228
REMARK   96  A    between atoms: _231  and  _233
REMARK   97  A    between atoms: _233  and  _234
REMARK   98  A    between atoms: _233  and  _236
REMARK   99  A    between atoms: _236  and  _237
REMARK  100  A    between atoms: _240  and  _242
REMARK  101  A    between atoms: _242  and  _243
REMARK  102  A    between atoms: _242  and  _245
REMARK  103  A    between atoms: _245  and  _246
REMARK  104  A    between atoms: _249  and  _251
REMARK  105  A    between atoms: _251  and  _252
REMARK  106  A    between atoms: _251  and  _254
REMARK  107  A    between atoms: _254  and  _255
REMARK  108  A    between atoms: _257  and  _259
REMARK  109  A    between atoms: _259  and  _260
REMARK  110  A    between atoms: _262  and  _264
REMARK  111  A    between atoms: _264  and  _265
REMARK  112  A    between atoms: _264  and  _267
REMARK  113  A    between atoms: _267  and  _268
REMARK  114  A    between atoms: _270  and  _272
REMARK  115  A    between atoms: _272  and  _273
REMARK  116  A    between atoms: _272  and  _275
REMARK  117  A    between atoms: _275  and  _276
REMARK  118  A    between atoms: _279  and  _281
REMARK  119  A    between atoms: _281  and  _282
REMARK  120  A    between atoms: _281  and  _284
REMARK  121  A    between atoms: _284  and  _285
REMARK  122  A    between atoms: _285  and  _286
REMARK  123  A    between atoms: _286  and  _287
REMARK  124  A    between atoms: _287  and  _288
REMARK  125  A    between atoms: _292  and  _294
REMARK  126  A    between atoms: _294  and  _295
REMARK  127  A    between atoms: _294  and  _297
REMARK  128  A    between atoms: _297  and  _298
REMARK  129  A    between atoms: _298  and  _299
REMARK  130  A    between atoms: _302  and  _304
REMARK  131  A    between atoms: _304  and  _305
REMARK  132  A    between atoms: _304  and  _307
REMARK  133  A    between atoms: _307  and  _308
REMARK  134  A    between atoms: _314  and  _316
REMARK  135  A    between atoms: _316  and  _317
REMARK  136  A    between atoms: _316  and  _319
REMARK  137  A    between atoms: _322  and  _324
REMARK  138  A    between atoms: _324  and  _325
REMARK  139  A    between atoms: _324  and  _327
REMARK  140  A    between atoms: _327  and  _328
REMARK  141  A    between atoms: _328  and  _329
REMARK  142  A    between atoms: _329  and  _330
REMARK  143  A    between atoms: _339  and  _341
REMARK  144  A    between atoms: _341  and  _342
REMARK  145  A    between atoms: _341  and  _344
REMARK  146  A    between atoms: _344  and  _345
REMARK  147  A    between atoms: _348  and  _350
REMARK  148  A    between atoms: _350  and  _351
REMARK  149  A    between atoms: _350  and  _353
REMARK  150  A    between atoms: _353  and  _354
REMARK  151  A    between atoms: _357  and  _359
REMARK  152  A    between atoms: _359  and  _360
REMARK  153  A    between atoms: _363  and  _365
REMARK  154  A    between atoms: _365  and  _366
REMARK  155  A    between atoms: _368  and  _370
REMARK  156  A    between atoms: _370  and  _371
REMARK  157  A    between atoms: _370  and  _373
REMARK  158  A    between atoms: _376  and  _378
REMARK  159  A    between atoms: _378  and  _379
REMARK  160  A    between atoms: _378  and  _381
REMARK  161  A    between atoms: _381  and  _382
REMARK  162  A    between atoms: _387  and  _388
REMARK  163  A    between atoms: _390  and  _392
REMARK  164  A    between atoms: _392  and  _393
REMARK  165  A    between atoms: _392  and  _395
REMARK  166  A    between atoms: _395  and  _396
REMARK  167  A    between atoms: _399  and  _401
REMARK  168  A    between atoms: _401  and  _402
REMARK  169  A    between atoms: _401  and  _404
REMARK  170  A    between atoms: _404  and  _405
REMARK  171  A    between atoms: _408  and  _410
REMARK  172  A    between atoms: _410  and  _411
REMARK  173  A    between atoms: _410  and  _413
REMARK  174  A    between atoms: _413  and  _414
REMARK  175  A    between atoms: _414  and  _415
REMARK  176  A    between atoms: _418  and  _420
REMARK  177  A    between atoms: _420  and  _421
REMARK  178  A    between atoms: _420  and  _423
REMARK  179  A    between atoms: _423  and  _424
REMARK  180  A    between atoms: _426  and  _428
REMARK  181  A    between atoms: _428  and  _429
REMARK  182  A    between atoms: _428  and  _431
REMARK  183  A    between atoms: _431  and  _432
REMARK  184  A    between atoms: _435  and  _437
REMARK  185  A    between atoms: _437  and  _438
REMARK  186  A    between atoms: _437  and  _440
REMARK  187  A    between atoms: _440  and  _441
REMARK  188  A    between atoms: _441  and  _442
REMARK  189  A    between atoms: _444  and  _446
REMARK  190  A    between atoms: _446  and  _447
REMARK  191  A    between atoms: _446  and  _449
REMARK  192  A    between atoms: _449  and  _450
REMARK  193  A    between atoms: _455  and  _457
REMARK  194  A    between atoms: _457  and  _458
REMARK  195  A    between atoms: _457  and  _460
REMARK  196  A    between atoms: _460  and  _461
REMARK  197  A    between atoms: _461  and  _462
REMARK  198  A    between atoms: _465  and  _467
REMARK  199  A    between atoms: _467  and  _468
REMARK  200  A    between atoms: _467  and  _470
REMARK  201  A    between atoms: _470  and  _471
REMARK  202  A    between atoms: _476  and  _477
REMARK  203  A    between atoms: _479  and  _481
REMARK  204  A    between atoms: _481  and  _482
REMARK  205  A    between atoms: _481  and  _484
REMARK  206  A    between atoms: _484  and  _485
REMARK  207  A    between atoms: _488  and  _490
REMARK  208  A    between atoms: _490  and  _491
REMARK  209  A    between atoms: _490  and  _493
REMARK  210  A    between atoms: _493  and  _494
REMARK  211  A    between atoms: _494  and  _495
REMARK  212  A    between atoms: _495  and  _496
REMARK  213  A    between atoms: _496  and  _497
REMARK  214  A    between atoms: _501  and  _503
REMARK  215  A    between atoms: _503  and  _504
REMARK  216  A    between atoms: _506  and  _508
REMARK  217  A    between atoms: _508  and  _509
REMARK  218  A    between atoms: _508  and  _511
REMARK  219  A    between atoms: _511  and  _512
REMARK  220  A    between atoms: _517  and  _518
REMARK  221  A    between atoms: _520  and  _522
REMARK  222  A    between atoms: _522  and  _523
REMARK  223  A    between atoms: _525  and  _527
REMARK  224  A    between atoms: _527  and  _528
REMARK  225  A    between atoms: _527  and  _530
REMARK  226  A    between atoms: _530  and  _531
REMARK                            x       y       z     vdW  Elec       q    Type
REMARK                         _______ _______ _______ _____ _____    ______ ____
ROOT
ATOM      1  C   ARG A   2      -6.791  30.358  45.762  0.00  0.00    +0.241 C 
ATOM      2  N   THR A   3      -7.784  30.862  46.492  0.00  0.00    -0.295 N 
ATOM      3  H   THR A   3      -8.738  30.915  46.081  0.00  0.00    +0.150 HD
ATOM      4  O   ARG A   2      -5.651  30.228  46.198  0.00  0.00    -0.273 OA
ENDROOT
BRANCH   2   5
ATOM      5  CA  THR A   3      -7.569  31.343  47.856  0.00  0.00    +0.176 C 
BRANCH   5   6
ATOM      6  C   THR A   3      -8.668  30.867  48.800  0.00  0.00    +0.243 C 
ATOM      7  N   THR A   4      -8.383  30.893  50.095  0.00  0.00    -0.295 N 
ATOM      8  H   THR A   4      -7.426  31.159  50.403  0.00  0.00    +0.150 HD
ATOM      9  O   THR A   3      -9.759  30.503  48.366  0.00  0.00    -0.273 OA
BRANCH   7  10
ATOM     10  CA  THR A   4      -9.387  30.555  51.091  0.00  0.00    +0.176 C 
BRANCH  10  11
ATOM     11  C   THR A   4     -10.613  31.465  50.928  0.00  0.00    +0.243 C 
ATOM     12  O   THR A   4     -11.748  31.007  51.001  0.00  0.00    -0.273 OA
ATOM     13  N   ALA A   5     -10.387  32.750  50.685  0.00  0.00    -0.298 N 
ATOM     14  H   ALA A   5      -9.409  33.096  50.609  0.00  0.00    +0.150 HD
BRANCH  13  15
ATOM     15  CA  ALA A   5     -11.501  33.685  50.523  0.00  0.00    +0.137 C 
ATOM     16  CB  ALA A   5     -10.995  35.116  50.348  0.00  0.00    +0.030 C 
BRANCH  15  17
ATOM     17  C   ALA A   5     -12.406  33.282  49.360  0.00  0.00    +0.227 C 
ATOM     18  O   ALA A   5     -13.630  33.352  49.460  0.00  0.00    -0.286 OA
ENDBRANCH  15  17
ENDBRANCH  13  15
ENDBRANCH  10  11
BRANCH  10  19
ATOM     19  CB  THR A   4      -8.808  30.639  52.519  0.00  0.00    +0.137 C 
ATOM     20  CG2 THR A   4      -9.888  30.373  53.568  0.00  0.00    +0.034 C 
BRANCH  19  21
ATOM     21  OG1 THR A   4      -7.759  29.671  52.660  0.00  0.00    -0.382 OA
ATOM     22  HG1 THR A   4      -8.124  28.765  52.502  0.00  0.00    +0.210 HD
ENDBRANCH  19  21
ENDBRANCH  10  19
ENDBRANCH   7  10
ENDBRANCH   5   6
BRANCH   5  23
ATOM     23  CB  THR A   3      -7.576  32.875  47.922  0.00  0.00    +0.137 C 
ATOM     24  CG2 THR A   3      -6.514  33.471  46.995  0.00  0.00    +0.034 C 
BRANCH  23  25
ATOM     25  OG1 THR A   3      -8.871  33.349  47.537  0.00  0.00    -0.382 OA
ATOM     26  HG1 THR A   3      -8.884  34.338  47.577  0.00  0.00    +0.210 HD
ENDBRANCH  23  25
ENDBRANCH   5  23
ENDBRANCH   2   5
BRANCH   1  27
ATOM     27  CA  ARG A   2      -7.115  29.949  44.325  0.00  0.00    +0.149 C 
BRANCH  27  30
ATOM     28  C   VAL A   1      -8.744  28.152  44.565  0.00  0.00    +0.238 C 
ATOM     29  O   VAL A   1      -7.944  27.425  45.155  0.00  0.00    -0.274 OA
ATOM     30  N   ARG A   2      -8.447  29.379  44.152  0.00  0.00    -0.297 N 
ATOM     31  H   ARG A   2      -9.185  29.950  43.692  0.00  0.00    +0.150 HD
BRANCH  28  32
ATOM     32  CA  VAL A   1     -10.144  27.657  44.247  0.00  0.00    +0.145 C 
BRANCH  32  33
ATOM     33  CB  VAL A   1     -11.115  28.141  45.343  0.00  0.00    +0.025 C 
ATOM     34  CG2 VAL A   1     -10.729  27.543  46.695  0.00  0.00    +0.002 C 
ATOM     35  CG1 VAL A   1     -12.542  27.766  44.985  0.00  0.00    +0.002 C 
ENDBRANCH  32  33
BRANCH  32  36
ATOM     36  N   VAL A   1     -10.127  26.198  44.147  0.00  0.00    -0.238 NA
ATOM     37  H   VAL A   1      -9.613  25.652  44.867  0.00  0.00    +0.142 HD
ENDBRANCH  32  36
ENDBRANCH  28  32
ENDBRANCH  27  30
BRANCH  27  38
ATOM     38  CB  ARG A   2      -6.918  31.147  43.385  0.00  0.00    +0.033 C 
BRANCH  38  39
ATOM     39  CG  ARG A   2      -6.734  30.777  41.928  0.00  0.00    +0.045 C 
BRANCH  39  40
ATOM     40  CD  ARG A   2      -6.568  32.018  41.065  0.00  0.00    +0.174 C 
BRANCH  40  41
ATOM     41  NE  ARG A   2      -7.737  32.891  41.131  0.00  0.00    -0.265 N 
ATOM     42  HE  ARG A   2      -7.730  33.662  41.829  0.00  0.00    +0.259 HD
ATOM     43  CZ  ARG A   2      -8.809  32.764  40.356  0.00  0.00    +0.342 C 
ATOM     44  NH2 ARG A   2      -9.826  33.604  40.488  0.00  0.00    -0.292 N 
ATOM     45 HH21 ARG A   2      -9.785  34.363  41.198  0.00  0.00    +0.255 HD
ATOM     46 HH22 ARG A   2     -10.665  33.504  39.881  0.00  0.00    +0.255 HD
ATOM     47  NH1 ARG A   2      -8.867  31.796  39.450  0.00  0.00    -0.292 N 
ATOM     48 HH11 ARG A   2      -8.072  31.134  39.345  0.00  0.00    +0.255 HD
ATOM     49 HH12 ARG A   2      -9.708  31.700  38.845  0.00  0.00    +0.255 HD
ENDBRANCH  40  41
ENDBRANCH  39  40
ENDBRANCH  38  39
ENDBRANCH  27  38
ENDBRANCH   1  27
TORSDOF 19
REMARK  Name = ../refined-set-2016/3tza/3tza_pocket.pdb
REMARK  226 active torsions:
REMARK  status: ('A' for Active; 'I' for Inactive)
REMARK    1  A    between atoms: _1  and  _3
REMARK    2  A    between atoms: _3  and  _4
REMARK    3  A    between atoms: _3  and  _6
REMARK    4  A    between atoms: _6  and  _7
REMARK    5  A    between atoms: _10  and  _12
REMARK    6  A    between atoms: _12  and  _13
REMARK    7  A    between atoms: _12  and  _15
REMARK    8  A    between atoms: _15  and  _16
REMARK    9  A    between atoms: _16  and  _17
REMARK   10  A    between atoms: _20  and  _22
REMARK   11  A    between atoms: _22  and  _23
REMARK   12  A    between atoms: _22  and  _25
REMARK   13  A    between atoms: _25  and  _26
REMARK   14  A    between atoms: _29  and  _30
REMARK   15  A    between atoms: _35  and  _37
REMARK   16  A    between atoms: _37  and  _38
REMARK   17  A    between atoms: _37  and  _40
REMARK   18  A    between atoms: _40  and  _41
REMARK   19  A    between atoms: _46  and  _47
REMARK   20  A    between atoms: _49  and  _51
REMARK   21  A    between atoms: _51  and  _52
REMARK   22  A    between atoms: _51  and  _54
REMARK   23  A    between atoms: _54  and  _55
REMARK   24  A    between atoms: _55  and  _56
REMARK   25  A    between atoms: _56  and  _57
REMARK   26  A    between atoms: _57  and  _58
REMARK   27  A    between atoms: _62  and  _64
REMARK   28  A    between atoms: _64  and  _65
REMARK   29  A    between atoms: _64  and  _67
REMARK   30  A    between atoms: _67  and  _68
REMARK   31  A    between atoms: _73  and  _74
REMARK   32  A    between atoms: _76  and  _78
REMARK   33  A    between atoms: _78  and  _79
REMARK   34  A    between atoms: _81  and  _83
REMARK   35  A    between atoms: _83  and  _84
REMARK   36  A    between atoms: _87  and  _89
REMARK   37  A    between atoms: _89  and  _90
REMARK   38  A    between atoms: _89  and  _92
REMARK   39  A    between atoms: _92  and  _93
REMARK   40  A    between atoms: _93  and  _94
REMARK   41  A    between atoms: _96  and  _98
REMARK   42  A    between atoms: _98  and  _99
REMARK   43  A    between atoms: _98  and  _101
REMARK   44  A    between atoms: _104  and  _106
REMARK   45  A    between atoms: _106  and  _107
REMARK   46  A    between atoms: _111  and  _112
REMARK   47  A    between atoms: _117  and  _119
REMARK   48  A    between atoms: _119  and  _120
REMARK   49  A    between atoms: _119  and  _122
REMARK   50  A    between atoms: _122  and  _123
REMARK   51  A    between atoms: _126  and  _128
REMARK   52  A    between atoms: _128  and  _129
REMARK   53  A    between atoms: _128  and  _131
REMARK   54  A    between atoms: _131  and  _132
REMARK   55  A    between atoms: _135  and  _137
REMARK   56  A    between atoms: _137  and  _138
REMARK   57  A    between atoms: _137  and  _140
REMARK   58  A    between atoms: _140  and  _141
REMARK   59  A    between atoms: _144  and  _146
REMARK   60  A    between atoms: _146  and  _147
REMARK   61  A    between atoms: _146  and  _149
REMARK   62  A    between atoms: _149  and  _150
REMARK   63  A    between atoms: _153  and  _155
REMARK   64  A    between atoms: _155  and  _156
REMARK   65  A    between atoms: _155  and  _158
REMARK   66  A    between atoms: _158  and  _159
REMARK   67  A    between atoms: _159  and  _160
REMARK   68  A    between atoms: _160  and  _161
REMARK   69  A    between atoms: _170  and  _172
REMARK   70  A    between atoms: _172  and  _173
REMARK   71  A    between atoms: _172  and  _175
REMARK   72  A    between atoms: _175  and  _176
REMARK   73  A    between atoms: _182  and  _184
REMARK   74  A    between atoms: _184  and  _185
REMARK   75  A    between atoms: _184  and  _187
REMARK   76  A    between atoms: _187  and  _188
REMARK   77  A    between atoms: _191  and  _193
REMARK   78  A    between atoms: _193  and  _194
REMARK   79  A    between atoms: _196  and  _198
REMARK   80  A    between atoms: _198  and  _199
REMARK   81  A    between atoms: _198  and  _201
REMARK   82  A    between atoms: _201  and  _202
REMARK   83  A    between atoms: _205  and  _207
REMARK   84  A    between atoms: _207  and  _208
REMARK   85  A    between atoms: _207  and  _210
REMARK   86  A    between atoms: _210  and  _211
REMARK   87  A    between atoms: _213  and  _215
REMARK   88  A    between atoms: _215  and  _216
REMARK   89  A    between atoms: _215  and  _218
REMARK   90  A    between atoms: _218  and  _219
REMARK   91  A    between atoms: _219  and  _220
REMARK   92  A    between atoms: _222  and  _224
REMARK   93  A    between atoms: _224  and  _225
REMARK   94  A    between atoms: _224  and  _227
REMARK   95  A    between atoms: _227  and  _228
REMARK   96  A    between atoms: _231  and  _233
REMARK   97  A    between atoms: _233  and  _234
REMARK   98  A    between atoms: _233  and  _236
REMARK   99  A    between atoms: _236  and  _237
REMARK  100  A    between atoms: _240  and  _242
REMARK  101  A    between atoms: _242  and  _243
REMARK  102  A    between atoms: _242  and  _245
REMARK  103  A    between atoms: _245  and  _246
REMARK  104  A    between atoms: _249  and  _251
REMARK  105  A    between atoms: _251  and  _252
REMARK  106  A    between atoms: _251  and  _254
REMARK  107  A    between atoms: _254  and  _255
REMARK  108  A    between atoms: _257  and  _259
REMARK  109  A    between atoms: _259  and  _260
REMARK  110  A    between atoms: _262  and  _264
REMARK  111  A    between atoms: _264  and  _265
REMARK  112  A    between atoms: _264  and  _267
REMARK  113  A    between atoms: _267  and  _268
REMARK  114  A    between atoms: _270  and  _272
REMARK  115  A    between atoms: _272  and  _273
REMARK  116  A    between atoms: _272  and  _275
REMARK  117  A    between atoms: _275  and  _276
REMARK  118  A    between atoms: _279  and  _281
REMARK  119  A    between atoms: _281  and  _282
REMARK  120  A    between atoms: _281  and  _284
REMARK  121  A    between atoms: _284  and  _285
REMARK  122  A    between atoms: _285  and  _286
REMARK  123  A    between atoms: _286  and  _287
REMARK  124  A    between atoms: _287  and  _288
REMARK  125  A    between atoms: _292  and  _294
REMARK  126  A    between atoms: _294  and  _295
REMARK  127  A    between atoms: _294  and  _297
REMARK  128  A    between atoms: _297  and  _298
REMARK  129  A    between atoms: _298  and  _299
REMARK  130  A    between atoms: _302  and  _304
REMARK  131  A    between atoms: _304  and  _305
REMARK  132  A    between atoms: _304  and  _307
REMARK  133  A    between atoms: _307  and  _308
REMARK  134  A    between atoms: _314  and  _316
REMARK  135  A    between atoms: _316  and  _317
REMARK  136  A    between atoms: _316  and  _319
REMARK  137  A    between atoms: _322  and  _324
REMARK  138  A    between atoms: _324  and  _325
REMARK  139  A    between atoms: _324  and  _327
REMARK  140  A    between atoms: _327  and  _328
REMARK  141  A    between atoms: _328  and  _329
REMARK  142  A    between atoms: _329  and  _330
REMARK  143  A    between atoms: _339  and  _341
REMARK  144  A    between atoms: _341  and  _342
REMARK  145  A    between atoms: _341  and  _344
REMARK  146  A    between atoms: _344  and  _345
REMARK  147  A    between atoms: _348  and  _350
REMARK  148  A    between atoms: _350  and  _351
REMARK  149  A    between atoms: _350  and  _353
REMARK  150  A    between atoms: _353  and  _354
REMARK  151  A    between atoms: _357  and  _359
REMARK  152  A    between atoms: _359  and  _360
REMARK  153  A    between atoms: _363  and  _365
REMARK  154  A    between atoms: _365  and  _366
REMARK  155  A    between atoms: _368  and  _370
REMARK  156  A    between atoms: _370  and  _371
REMARK  157  A    between atoms: _370  and  _373
REMARK  158  A    between atoms: _376  and  _378
REMARK  159  A    between atoms: _378  and  _379
REMARK  160  A    between atoms: _378  and  _381
REMARK  161  A    between atoms: _381  and  _382
REMARK  162  A    between atoms: _387  and  _388
REMARK  163  A    between atoms: _390  and  _392
REMARK  164  A    between atoms: _392  and  _393
REMARK  165  A    between atoms: _392  and  _395
REMARK  166  A    between atoms: _395  and  _396
REMARK  167  A    between atoms: _399  and  _401
REMARK  168  A    between atoms: _401  and  _402
REMARK  169  A    between atoms: _401  and  _404
REMARK  170  A    between atoms: _404  and  _405
REMARK  171  A    between atoms: _408  and  _410
REMARK  172  A    between atoms: _410  and  _411
REMARK  173  A    between atoms: _410  and  _413
REMARK  174  A    between atoms: _413  and  _414
REMARK  175  A    between atoms: _414  and  _415
REMARK  176  A    between atoms: _418  and  _420
REMARK  177  A    between atoms: _420  and  _421
REMARK  178  A    between atoms: _420  and  _423
REMARK  179  A    between atoms: _423  and  _424
REMARK  180  A    between atoms: _426  and  _428
REMARK  181  A    between atoms: _428  and  _429
REMARK  182  A    between atoms: _428  and  _431
REMARK  183  A    between atoms: _431  and  _432
REMARK  184  A    between atoms: _435  and  _437
REMARK  185  A    between atoms: _437  and  _438
REMARK  186  A    between atoms: _437  and  _440
REMARK  187  A    between atoms: _440  and  _441
REMARK  188  A    between atoms: _441  and  _442
REMARK  189  A    between atoms: _444  and  _446
REMARK  190  A    between atoms: _446  and  _447
REMARK  191  A    between atoms: _446  and  _449
REMARK  192  A    between atoms: _449  and  _450
REMARK  193  A    between atoms: _455  and  _457
REMARK  194  A    between atoms: _457  and  _458
REMARK  195  A    between atoms: _457  and  _460
REMARK  196  A    between atoms: _460  and  _461
REMARK  197  A    between atoms: _461  and  _462
REMARK  198  A    between atoms: _465  and  _467
REMARK  199  A    between atoms: _467  and  _468
REMARK  200  A    between atoms: _467  and  _470
REMARK  201  A    between atoms: _470  and  _471
REMARK  202  A    between atoms: _476  and  _477
REMARK  203  A    between atoms: _479  and  _481
REMARK  204  A    between atoms: _481  and  _482
REMARK  205  A    between atoms: _481  and  _484
REMARK  206  A    between atoms: _484  and  _485
REMARK  207  A    between atoms: _488  and  _490
REMARK  208  A    between atoms: _490  and  _491
REMARK  209  A    between atoms: _490  and  _493
REMARK  210  A    between atoms: _493  and  _494
REMARK  211  A    between atoms: _494  and  _495
REMARK  212  A    between atoms: _495  and  _496
REMARK  213  A    between atoms: _496  and  _497
REMARK  214  A    between atoms: _501  and  _503
REMARK  215  A    between atoms: _503  and  _504
REMARK  216  A    between atoms: _506  and  _508
REMARK  217  A    between atoms: _508  and  _509
REMARK  218  A    between atoms: _508  and  _511
REMARK  219  A    between atoms: _511  and  _512
REMARK  220  A    between atoms: _517  and  _518
REMARK  221  A    between atoms: _520  and  _522
REMARK  222  A    between atoms: _522  and  _523
REMARK  223  A    between atoms: _525  and  _527
REMARK  224  A    between atoms: _527  and  _528
REMARK  225  A    between atoms: _527  and  _530
REMARK  226  A    between atoms: _530  and  _531
REMARK                            x       y       z     vdW  Elec       q    Type
REMARK                         _______ _______ _______ _____ _____    ______ ____
ROOT
ATOM      1  C   GLY A   1     -14.837  29.433  49.370  0.00  0.00    +0.240 C 
ATOM      2  N   VAL A   2     -14.613  30.330  50.325  0.00  0.00    -0.298 N 
ATOM      3  H   VAL A   2     -13.657  30.713  50.466  0.00  0.00    +0.150 HD
ATOM      4  O   GLY A   1     -15.950  28.929  49.180  0.00  0.00    -0.274 OA
ENDROOT
BRANCH   1   5
ATOM      5  CA  GLY A   1     -13.650  29.053  48.514  0.00  0.00    +0.169 C 
BRANCH   5   6
ATOM      6  N   GLY A   1     -12.883  30.223  48.124  0.00  0.00    -0.236 NA
ATOM      7  H   GLY A   1     -11.882  30.292  48.397  0.00  0.00    +0.142 HD
ENDBRANCH   5   6
ENDBRANCH   1   5
BRANCH   2   8
ATOM      8  CA  VAL A   2     -15.712  30.775  51.174  0.00  0.00    +0.137 C 
BRANCH   8   9
ATOM      9  CB  VAL A   2     -15.231  31.682  52.332  0.00  0.00    +0.026 C 
ATOM     10  CG2 VAL A   2     -14.342  30.910  53.289  0.00  0.00    +0.002 C 
ATOM     11  CG1 VAL A   2     -16.426  32.255  53.081  0.00  0.00    +0.002 C 
ENDBRANCH   8   9
BRANCH   8  12
ATOM     12  C   VAL A   2     -16.759  31.512  50.331  0.00  0.00    +0.227 C 
ATOM     13  O   VAL A   2     -17.954  31.244  50.436  0.00  0.00    -0.286 OA
ENDBRANCH   8  12
ENDBRANCH   2   8
TORSDOF 5
REMARK  Name = ../refined-set-2016/3tza/3tza_pocket.pdb
REMARK  226 active torsions:
REMARK  status: ('A' for Active; 'I' for Inactive)
REMARK    1  A    between atoms: _1  and  _3
REMARK    2  A    between atoms: _3  and  _4
REMARK    3  A    between atoms: _3  and  _6
REMARK    4  A    between atoms: _6  and  _7
REMARK    5  A    between atoms: _10  and  _12
REMARK    6  A    between atoms: _12  and  _13
REMARK    7  A    between atoms: _12  and  _15
REMARK    8  A    between atoms: _15  and  _16
REMARK    9  A    between atoms: _16  and  _17
REMARK   10  A    between atoms: _20  and  _22
REMARK   11  A    between atoms: _22  and  _23
REMARK   12  A    between atoms: _22  and  _25
REMARK   13  A    between atoms: _25  and  _26
REMARK   14  A    between atoms: _29  and  _30
REMARK   15  A    between atoms: _35  and  _37
REMARK   16  A    between atoms: _37  and  _38
REMARK   17  A    between atoms: _37  and  _40
REMARK   18  A    between atoms: _40  and  _41
REMARK   19  A    between atoms: _46  and  _47
REMARK   20  A    between atoms: _49  and  _51
REMARK   21  A    between atoms: _51  and  _52
REMARK   22  A    between atoms: _51  and  _54
REMARK   23  A    between atoms: _54  and  _55
REMARK   24  A    between atoms: _55  and  _56
REMARK   25  A    between atoms: _56  and  _57
REMARK   26  A    between atoms: _57  and  _58
REMARK   27  A    between atoms: _62  and  _64
REMARK   28  A    between atoms: _64  and  _65
REMARK   29  A    between atoms: _64  and  _67
REMARK   30  A    between atoms: _67  and  _68
REMARK   31  A    between atoms: _73  and  _74
REMARK   32  A    between atoms: _76  and  _78
REMARK   33  A    between atoms: _78  and  _79
REMARK   34  A    between atoms: _81  and  _83
REMARK   35  A    between atoms: _83  and  _84
REMARK   36  A    between atoms: _87  and  _89
REMARK   37  A    between atoms: _89  and  _90
REMARK   38  A    between atoms: _89  and  _92
REMARK   39  A    between atoms: _92  and  _93
REMARK   40  A    between atoms: _93  and  _94
REMARK   41  A    between atoms: _96  and  _98
REMARK   42  A    between atoms: _98  and  _99
REMARK   43  A    between atoms: _98  and  _101
REMARK   44  A    between atoms: _104  and  _106
REMARK   45  A    between atoms: _106  and  _107
REMARK   46  A    between atoms: _111  and  _112
REMARK   47  A    between atoms: _117  and  _119
REMARK   48  A    between atoms: _119  and  _120
REMARK   49  A    between atoms: _119  and  _122
REMARK   50  A    between atoms: _122  and  _123
REMARK   51  A    between atoms: _126  and  _128
REMARK   52  A    between atoms: _128  and  _129
REMARK   53  A    between atoms: _128  and  _131
REMARK   54  A    between atoms: _131  and  _132
REMARK   55  A    between atoms: _135  and  _137
REMARK   56  A    between atoms: _137  and  _138
REMARK   57  A    between atoms: _137  and  _140
REMARK   58  A    between atoms: _140  and  _141
REMARK   59  A    between atoms: _144  and  _146
REMARK   60  A    between atoms: _146  and  _147
REMARK   61  A    between atoms: _146  and  _149
REMARK   62  A    between atoms: _149  and  _150
REMARK   63  A    between atoms: _153  and  _155
REMARK   64  A    between atoms: _155  and  _156
REMARK   65  A    between atoms: _155  and  _158
REMARK   66  A    between atoms: _158  and  _159
REMARK   67  A    between atoms: _159  and  _160
REMARK   68  A    between atoms: _160  and  _161
REMARK   69  A    between atoms: _170  and  _172
REMARK   70  A    between atoms: _172  and  _173
REMARK   71  A    between atoms: _172  and  _175
REMARK   72  A    between atoms: _175  and  _176
REMARK   73  A    between atoms: _182  and  _184
REMARK   74  A    between atoms: _184  and  _185
REMARK   75  A    between atoms: _184  and  _187
REMARK   76  A    between atoms: _187  and  _188
REMARK   77  A    between atoms: _191  and  _193
REMARK   78  A    between atoms: _193  and  _194
REMARK   79  A    between atoms: _196  and  _198
REMARK   80  A    between atoms: _198  and  _199
REMARK   81  A    between atoms: _198  and  _201
REMARK   82  A    between atoms: _201  and  _202
REMARK   83  A    between atoms: _205  and  _207
REMARK   84  A    between atoms: _207  and  _208
REMARK   85  A    between atoms: _207  and  _210
REMARK   86  A    between atoms: _210  and  _211
REMARK   87  A    between atoms: _213  and  _215
REMARK   88  A    between atoms: _215  and  _216
REMARK   89  A    between atoms: _215  and  _218
REMARK   90  A    between atoms: _218  and  _219
REMARK   91  A    between atoms: _219  and  _220
REMARK   92  A    between atoms: _222  and  _224
REMARK   93  A    between atoms: _224  and  _225
REMARK   94  A    between atoms: _224  and  _227
REMARK   95  A    between atoms: _227  and  _228
REMARK   96  A    between atoms: _231  and  _233
REMARK   97  A    between atoms: _233  and  _234
REMARK   98  A    between atoms: _233  and  _236
REMARK   99  A    between atoms: _236  and  _237
REMARK  100  A    between atoms: _240  and  _242
REMARK  101  A    between atoms: _242  and  _243
REMARK  102  A    between atoms: _242  and  _245
REMARK  103  A    between atoms: _245  and  _246
REMARK  104  A    between atoms: _249  and  _251
REMARK  105  A    between atoms: _251  and  _252
REMARK  106  A    between atoms: _251  and  _254
REMARK  107  A    between atoms: _254  and  _255
REMARK  108  A    between atoms: _257  and  _259
REMARK  109  A    between atoms: _259  and  _260
REMARK  110  A    between atoms: _262  and  _264
REMARK  111  A    between atoms: _264  and  _265
REMARK  112  A    between atoms: _264  and  _267
REMARK  113  A    between atoms: _267  and  _268
REMARK  114  A    between atoms: _270  and  _272
REMARK  115  A    between atoms: _272  and  _273
REMARK  116  A    between atoms: _272  and  _275
REMARK  117  A    between atoms: _275  and  _276
REMARK  118  A    between atoms: _279  and  _281
REMARK  119  A    between atoms: _281  and  _282
REMARK  120  A    between atoms: _281  and  _284
REMARK  121  A    between atoms: _284  and  _285
REMARK  122  A    between atoms: _285  and  _286
REMARK  123  A    between atoms: _286  and  _287
REMARK  124  A    between atoms: _287  and  _288
REMARK  125  A    between atoms: _292  and  _294
REMARK  126  A    between atoms: _294  and  _295
REMARK  127  A    between atoms: _294  and  _297
REMARK  128  A    between atoms: _297  and  _298
REMARK  129  A    between atoms: _298  and  _299
REMARK  130  A    between atoms: _302  and  _304
REMARK  131  A    between atoms: _304  and  _305
REMARK  132  A    between atoms: _304  and  _307
REMARK  133  A    between atoms: _307  and  _308
REMARK  134  A    between atoms: _314  and  _316
REMARK  135  A    between atoms: _316  and  _317
REMARK  136  A    between atoms: _316  and  _319
REMARK  137  A    between atoms: _322  and  _324
REMARK  138  A    between atoms: _324  and  _325
REMARK  139  A    between atoms: _324  and  _327
REMARK  140  A    between atoms: _327  and  _328
REMARK  141  A    between atoms: _328  and  _329
REMARK  142  A    between atoms: _329  and  _330
REMARK  143  A    between atoms: _339  and  _341
REMARK  144  A    between atoms: _341  and  _342
REMARK  145  A    between atoms: _341  and  _344
REMARK  146  A    between atoms: _344  and  _345
REMARK  147  A    between atoms: _348  and  _350
REMARK  148  A    between atoms: _350  and  _351
REMARK  149  A    between atoms: _350  and  _353
REMARK  150  A    between atoms: _353  and  _354
REMARK  151  A    between atoms: _357  and  _359
REMARK  152  A    between atoms: _359  and  _360
REMARK  153  A    between atoms: _363  and  _365
REMARK  154  A    between atoms: _365  and  _366
REMARK  155  A    between atoms: _368  and  _370
REMARK  156  A    between atoms: _370  and  _371
REMARK  157  A    between atoms: _370  and  _373
REMARK  158  A    between atoms: _376  and  _378
REMARK  159  A    between atoms: _378  and  _379
REMARK  160  A    between atoms: _378  and  _381
REMARK  161  A    between atoms: _381  and  _382
REMARK  162  A    between atoms: _387  and  _388
REMARK  163  A    between atoms: _390  and  _392
REMARK  164  A    between atoms: _392  and  _393
REMARK  165  A    between atoms: _392  and  _395
REMARK  166  A    between atoms: _395  and  _396
REMARK  167  A    between atoms: _399  and  _401
REMARK  168  A    between atoms: _401  and  _402
REMARK  169  A    between atoms: _401  and  _404
REMARK  170  A    between atoms: _404  and  _405
REMARK  171  A    between atoms: _408  and  _410
REMARK  172  A    between atoms: _410  and  _411
REMARK  173  A    between atoms: _410  and  _413
REMARK  174  A    between atoms: _413  and  _414
REMARK  175  A    between atoms: _414  and  _415
REMARK  176  A    between atoms: _418  and  _420
REMARK  177  A    between atoms: _420  and  _421
REMARK  178  A    between atoms: _420  and  _423
REMARK  179  A    between atoms: _423  and  _424
REMARK  180  A    between atoms: _426  and  _428
REMARK  181  A    between atoms: _428  and  _429
REMARK  182  A    between atoms: _428  and  _431
REMARK  183  A    between atoms: _431  and  _432
REMARK  184  A    between atoms: _435  and  _437
REMARK  185  A    between atoms: _437  and  _438
REMARK  186  A    between atoms: _437  and  _440
REMARK  187  A    between atoms: _440  and  _441
REMARK  188  A    between atoms: _441  and  _442
REMARK  189  A    between atoms: _444  and  _446
REMARK  190  A    between atoms: _446  and  _447
REMARK  191  A    between atoms: _446  and  _449
REMARK  192  A    between atoms: _449  and  _450
REMARK  193  A    between atoms: _455  and  _457
REMARK  194  A    between atoms: _457  and  _458
REMARK  195  A    between atoms: _457  and  _460
REMARK  196  A    between atoms: _460  and  _461
REMARK  197  A    between atoms: _461  and  _462
REMARK  198  A    between atoms: _465  and  _467
REMARK  199  A    between atoms: _467  and  _468
REMARK  200  A    between atoms: _467  and  _470
REMARK  201  A    between atoms: _470  and  _471
REMARK  202  A    between atoms: _476  and  _477
REMARK  203  A    between atoms: _479  and  _481
REMARK  204  A    between atoms: _481  and  _482
REMARK  205  A    between atoms: _481  and  _484
REMARK  206  A    between atoms: _484  and  _485
REMARK  207  A    between atoms: _488  and  _490
REMARK  208  A    between atoms: _490  and  _491
REMARK  209  A    between atoms: _490  and  _493
REMARK  210  A    between atoms: _493  and  _494
REMARK  211  A    between atoms: _494  and  _495
REMARK  212  A    between atoms: _495  and  _496
REMARK  213  A    between atoms: _496  and  _497
REMARK  214  A    between atoms: _501  and  _503
REMARK  215  A    between atoms: _503  and  _504
REMARK  216  A    between atoms: _506  and  _508
REMARK  217  A    between atoms: _508  and  _509
REMARK  218  A    between atoms: _508  and  _511
REMARK  219  A    between atoms: _511  and  _512
REMARK  220  A    between atoms: _517  and  _518
REMARK  221  A    between atoms: _520  and  _522
REMARK  222  A    between atoms: _522  and  _523
REMARK  223  A    between atoms: _525  and  _527
REMARK  224  A    between atoms: _527  and  _528
REMARK  225  A    between atoms: _527  and  _530
REMARK  226  A    between atoms: _530  and  _531
REMARK                            x       y       z     vdW  Elec       q    Type
REMARK                         _______ _______ _______ _____ _____    ______ ____
ROOT
ATOM      1  CA  THR A   6     -10.242  26.571  62.644  0.00  0.00    +0.176 C 
ENDROOT
BRANCH   1   4
ATOM      2  C   SER A   5     -11.633  24.821  61.692  0.00  0.00    +0.243 C 
ATOM      3  O   SER A   5     -12.661  25.418  61.989  0.00  0.00    -0.273 OA
ATOM      4  N   THR A   6     -10.426  25.283  61.985  0.00  0.00    -0.295 N 
ATOM      5  H   THR A   6      -9.591  24.714  61.739  0.00  0.00    +0.150 HD
BRANCH   2   6
ATOM      6  CA  SER A   5     -11.693  23.482  60.963  0.00  0.00    +0.178 C 
BRANCH   6   8
ATOM      7  C   GLU A   4     -10.247  24.084  59.082  0.00  0.00    +0.241 C 
ATOM      8  N   SER A   5     -10.555  23.262  60.079  0.00  0.00    -0.295 N 
ATOM      9  H   SER A   5      -9.958  22.425  60.236  0.00  0.00    +0.150 HD
ATOM     10  O   GLU A   4     -10.851  25.138  58.861  0.00  0.00    -0.273 OA
BRANCH   7  11
ATOM     11  CA  GLU A   4      -9.145  23.591  58.140  0.00  0.00    +0.149 C 
BRANCH  11  14
ATOM     12  C   LEU A   3     -10.473  23.198  56.178  0.00  0.00    +0.241 C 
ATOM     13  O   LEU A   3     -11.114  22.333  56.767  0.00  0.00    -0.273 OA
ATOM     14  N   GLU A   4      -9.502  23.879  56.766  0.00  0.00    -0.297 N 
ATOM     15  H   GLU A   4      -8.996  24.621  56.242  0.00  0.00    +0.150 HD
BRANCH  12  16
ATOM     16  CA  LEU A   3     -10.766  23.538  54.727  0.00  0.00    +0.149 C 
BRANCH  16  18
ATOM     17  C   LEU A   2     -11.901  22.418  52.895  0.00  0.00    +0.241 C 
ATOM     18  N   LEU A   3     -11.820  22.682  54.195  0.00  0.00    -0.297 N 
ATOM     19  H   LEU A   3     -12.521  22.271  54.844  0.00  0.00    +0.150 HD
ATOM     20  O   LEU A   2     -11.097  22.860  52.079  0.00  0.00    -0.273 OA
BRANCH  17  21
ATOM     21  CA  LEU A   2     -13.077  21.551  52.437  0.00  0.00    +0.149 C 
BRANCH  21  24
ATOM     22  C   TYR A   1     -14.970  22.972  51.857  0.00  0.00    +0.239 C 
ATOM     23  O   TYR A   1     -15.357  23.008  53.024  0.00  0.00    -0.274 OA
ATOM     24  N   LEU A   2     -13.896  22.286  51.477  0.00  0.00    -0.297 N 
ATOM     25  H   LEU A   2     -13.633  22.273  50.471  0.00  0.00    +0.150 HD
BRANCH  22  26
ATOM     26  CA  TYR A   1     -15.724  23.719  50.755  0.00  0.00    +0.149 C 
BRANCH  26  27
ATOM     27  N   TYR A   1     -17.149  23.398  50.718  0.00  0.00    -0.238 NA
ATOM     28  H   TYR A   1     -17.757  23.680  51.513  0.00  0.00    +0.142 HD
ENDBRANCH  26  27
BRANCH  26  29
ATOM     29  CB  TYR A   1     -15.511  25.240  50.880  0.00  0.00    +0.053 C 
BRANCH  29  30
ATOM     30  CG  TYR A   1     -14.057  25.663  50.777  0.00  0.00    -0.020 A 
ATOM     31  CD2 TYR A   1     -13.496  26.548  51.695  0.00  0.00    -0.001 A 
ATOM     32  CE2 TYR A   1     -12.165  26.932  51.605  0.00  0.00    +0.036 A 
ATOM     33  CZ  TYR A   1     -11.375  26.430  50.579  0.00  0.00    +0.134 A 
ATOM     34  CE1 TYR A   1     -11.909  25.560  49.655  0.00  0.00    +0.036 A 
ATOM     35  CD1 TYR A   1     -13.247  25.183  49.755  0.00  0.00    -0.001 A 
BRANCH  33  36
ATOM     36  OH  TYR A   1     -10.054  26.802  50.477  0.00  0.00    -0.506 OA
ATOM     37  HH  TYR A   1      -9.573  26.536  51.300  0.00  0.00    +0.292 HD
ENDBRANCH  33  36
ENDBRANCH  29  30
ENDBRANCH  26  29
ENDBRANCH  22  26
ENDBRANCH  21  24
BRANCH  21  38
ATOM     38  CB  LEU A   2     -12.585  20.242  51.810  0.00  0.00    +0.029 C 
BRANCH  38  39
ATOM     39  CG  LEU A   2     -13.708  19.213  51.636  0.00  0.00    +0.002 C 
ATOM     40  CD2 LEU A   2     -13.909  18.421  52.933  0.00  0.00    +0.000 C 
ATOM     41  CD1 LEU A   2     -13.440  18.287  50.463  0.00  0.00    +0.000 C 
ENDBRANCH  38  39
ENDBRANCH  21  38
ENDBRANCH  17  21
ENDBRANCH  16  18
BRANCH  16  42
ATOM     42  CB  LEU A   3     -11.143  25.018  54.582  0.00  0.00    +0.029 C 
BRANCH  42  43
ATOM     43  CG  LEU A   3     -12.143  25.569  55.589  0.00  0.00    +0.002 C 
ATOM     44  CD2 LEU A   3     -13.488  24.838  55.492  0.00  0.00    +0.000 C 
ATOM     45  CD1 LEU A   3     -12.339  27.071  55.400  0.00  0.00    +0.000 C 
ENDBRANCH  42  43
ENDBRANCH  16  42
ENDBRANCH  12  16
ENDBRANCH  11  14
BRANCH  11  46
ATOM     46  CB  GLU A   4      -7.739  24.128  58.447  0.00  0.00    +0.041 C 
BRANCH  46  47
ATOM     47  CG  GLU A   4      -6.714  23.430  57.535  0.00  0.00    +0.116 C 
BRANCH  47  48
ATOM     48  CD  GLU A   4      -5.259  23.674  57.896  0.00  0.00    +0.365 C 
ATOM     49  OE2 GLU A   4      -4.958  24.630  58.641  0.00  0.00    -0.246 OA
ATOM     50  OE1 GLU A   4      -4.406  22.897  57.406  0.00  0.00    -0.246 OA
ENDBRANCH  47  48
ENDBRANCH  46  47
ENDBRANCH  11  46
ENDBRANCH   7  11
ENDBRANCH   6   8
BRANCH   6  51
ATOM     51  CB  SER A   5     -11.802  22.339  61.973  0.00  0.00    +0.166 C 
BRANCH  51  52
ATOM     52  OG  SER A   5     -10.621  22.207  62.744  0.00  0.00    -0.380 OA
ATOM     53  H   SER A   5     -10.457  23.048  63.240  0.00  0.00    +0.211 HD
ENDBRANCH  51  52
ENDBRANCH   6  51
ENDBRANCH   2   6
ENDBRANCH   1   4
BRANCH   1  54
ATOM     54  C   THR A   6     -10.893  27.690  61.843  0.00  0.00    +0.243 C 
ATOM     55  O   THR A   6     -11.654  28.497  62.384  0.00  0.00    -0.273 OA
ATOM     56  N   MET A   7     -10.583  27.735  60.552  0.00  0.00    -0.297 N 
ATOM     57  H   MET A   7      -9.952  27.007  60.161  0.00  0.00    +0.150 HD
BRANCH  56  58
ATOM     58  CA  MET A   7     -11.100  28.775  59.661  0.00  0.00    +0.149 C 
BRANCH  58  59
ATOM     59  C   MET A   7     -12.598  28.590  59.453  0.00  0.00    +0.241 C 
ATOM     60  O   MET A   7     -13.351  29.554  59.379  0.00  0.00    -0.273 OA
ATOM     61  N   ASN A   8     -13.023  27.335  59.372  0.00  0.00    -0.297 N 
ATOM     62  H   ASN A   8     -12.327  26.563  59.409  0.00  0.00    +0.150 HD
BRANCH  61  63
ATOM     63  CA  ASN A   8     -14.431  27.007  59.233  0.00  0.00    +0.158 C 
BRANCH  63  64
ATOM     64  C   ASN A   8     -15.239  27.608  60.393  0.00  0.00    +0.241 C 
ATOM     65  N   GLU A   9     -14.763  27.373  61.614  0.00  0.00    -0.297 N 
ATOM     66  H   GLU A   9     -13.889  26.816  61.700  0.00  0.00    +0.150 HD
ATOM     67  O   ASN A   8     -16.257  28.274  60.179  0.00  0.00    -0.273 OA
BRANCH  65  68
ATOM     68  CA  GLU A   9     -15.398  27.853  62.843  0.00  0.00    +0.149 C 
BRANCH  68  69
ATOM     69  C   GLU A   9     -15.402  29.375  62.937  0.00  0.00    +0.241 C 
ATOM     70  O   GLU A   9     -16.356  29.983  63.424  0.00  0.00    -0.273 OA
ATOM     71  N   TYR A  10     -14.316  29.978  62.484  0.00  0.00    -0.297 N 
ATOM     72  H   TYR A  10     -13.515  29.401  62.156  0.00  0.00    +0.150 HD
BRANCH  71  73
ATOM     73  CA  TYR A  10     -14.213  31.429  62.433  0.00  0.00    +0.153 C 
BRANCH  73  74
ATOM     74  C   TYR A  10     -15.293  32.014  61.527  0.00  0.00    +0.241 C 
ATOM     75  O   TYR A  10     -16.046  32.904  61.933  0.00  0.00    -0.273 OA
ATOM     76  N   ILE A  11     -15.362  31.503  60.300  0.00  0.00    -0.298 N 
ATOM     77  H   ILE A  11     -14.758  30.690  60.064  0.00  0.00    +0.150 HD
BRANCH  76  78
ATOM     78  CA  ILE A  11     -16.249  32.036  59.274  0.00  0.00    +0.137 C 
BRANCH  78  79
ATOM     79  CB  ILE A  11     -15.987  31.357  57.890  0.00  0.00    +0.026 C 
ATOM     80  CG2 ILE A  11     -17.065  31.736  56.868  0.00  0.00    +0.002 C 
BRANCH  79  81
ATOM     81  CG1 ILE A  11     -14.601  31.727  57.360  0.00  0.00    +0.002 C 
ATOM     82  CD1 ILE A  11     -14.475  33.176  56.903  0.00  0.00    +0.000 C 
ENDBRANCH  79  81
ENDBRANCH  78  79
BRANCH  78  83
ATOM     83  C   ILE A  11     -17.701  31.859  59.704  0.00  0.00    +0.227 C 
ATOM     84  O   ILE A  11     -18.562  32.691  59.408  0.00  0.00    -0.286 OA
ENDBRANCH  78  83
ENDBRANCH  76  78
ENDBRANCH  73  74
BRANCH  73  85
ATOM     85  CB  TYR A  10     -12.828  31.843  61.930  0.00  0.00    +0.055 C 
BRANCH  85  86
ATOM     86  CG  TYR A  10     -12.647  33.342  61.810  0.00  0.00    -0.020 A 
ATOM     87  CD2 TYR A  10     -12.570  34.145  62.944  0.00  0.00    -0.001 A 
ATOM     88  CE2 TYR A  10     -12.397  35.521  62.836  0.00  0.00    +0.036 A 
ATOM     89  CZ  TYR A  10     -12.306  36.096  61.587  0.00  0.00    +0.134 A 
ATOM     90  CE1 TYR A  10     -12.378  35.318  60.449  0.00  0.00    +0.036 A 
ATOM     91  CD1 TYR A  10     -12.548  33.955  60.563  0.00  0.00    -0.001 A 
BRANCH  89  92
ATOM     92  OH  TYR A  10     -12.141  37.453  61.468  0.00  0.00    -0.506 OA
ATOM     93  HH  TYR A  10     -12.109  37.861  62.370  0.00  0.00    +0.292 HD
ENDBRANCH  89  92
ENDBRANCH  85  86
ENDBRANCH  73  85
ENDBRANCH  71  73
ENDBRANCH  68  69
BRANCH  68  94
ATOM     94  CB  GLU A   9     -14.667  27.287  64.063  0.00  0.00    +0.041 C 
BRANCH  94  95
ATOM     95  CG  GLU A   9     -14.937  25.817  64.313  0.00  0.00    +0.116 C 
BRANCH  95  96
ATOM     96  CD  GLU A   9     -13.901  25.174  65.219  0.00  0.00    +0.365 C 
ATOM     97  OE2 GLU A   9     -14.133  24.020  65.639  0.00  0.00    -0.246 OA
ATOM     98  OE1 GLU A   9     -12.860  25.817  65.507  0.00  0.00    -0.246 OA
ENDBRANCH  95  96
ENDBRANCH  94  95
ENDBRANCH  68  94
ENDBRANCH  65  68
ENDBRANCH  63  64
BRANCH  63  99
ATOM     99  CB  ASN A   8     -14.587  25.479  59.175  0.00  0.00    +0.114 C 
BRANCH  99 100
ATOM    100  CG  ASN A   8     -15.873  25.041  58.510  0.00  0.00    +0.222 C 
ATOM    101  ND2 ASN A   8     -15.992  23.737  58.263  0.00  0.00    -0.329 N 
ATOM    102 HD21 ASN A   8     -15.227  23.085  58.529  0.00  0.00    +0.145 HD
ATOM    103 HD22 ASN A   8     -16.850  23.371  57.804  0.00  0.00    +0.145 HD
ATOM    104  OD1 ASN A   8     -16.747  25.855  58.216  0.00  0.00    -0.275 OA
ENDBRANCH  99 100
ENDBRANCH  63  99
ENDBRANCH  61  63
ENDBRANCH  58  59
BRANCH  58 105
ATOM    105  CB  MET A   7     -10.373  28.741  58.312  0.00  0.00    +0.041 C 
BRANCH 105 106
ATOM    106  CG  MET A   7     -10.872  29.760  57.297  0.00  0.00    +0.060 C 
BRANCH 106 107
ATOM    107  SD  MET A   7     -10.592  31.458  57.853  0.00  0.00    -0.139 S 
ATOM    108  CE  MET A   7      -8.804  31.517  57.835  0.00  0.00    +0.069 C 
ENDBRANCH 106 107
ENDBRANCH 105 106
ENDBRANCH  58 105
ENDBRANCH  56  58
ENDBRANCH   1  54
BRANCH   1 109
ATOM    109  CB  THR A   6      -8.745  26.900  62.788  0.00  0.00    +0.137 C 
ATOM    110  CG2 THR A   6      -8.120  26.050  63.888  0.00  0.00    +0.034 C 
BRANCH 109 111
ATOM    111  OG1 THR A   6      -8.085  26.638  61.538  0.00  0.00    -0.382 OA
ATOM    112  HG1 THR A   6      -7.121  26.848  61.625  0.00  0.00    +0.210 HD
ENDBRANCH 109 111
ENDBRANCH   1 109
TORSDOF 49
REMARK  Name = ../refined-set-2016/3tza/3tza_pocket.pdb
REMARK  226 active torsions:
REMARK  status: ('A' for Active; 'I' for Inactive)
REMARK    1  A    between atoms: _1  and  _3
REMARK    2  A    between atoms: _3  and  _4
REMARK    3  A    between atoms: _3  and  _6
REMARK    4  A    between atoms: _6  and  _7
REMARK    5  A    between atoms: _10  and  _12
REMARK    6  A    between atoms: _12  and  _13
REMARK    7  A    between atoms: _12  and  _15
REMARK    8  A    between atoms: _15  and  _16
REMARK    9  A    between atoms: _16  and  _17
REMARK   10  A    between atoms: _20  and  _22
REMARK   11  A    between atoms: _22  and  _23
REMARK   12  A    between atoms: _22  and  _25
REMARK   13  A    between atoms: _25  and  _26
REMARK   14  A    between atoms: _29  and  _30
REMARK   15  A    between atoms: _35  and  _37
REMARK   16  A    between atoms: _37  and  _38
REMARK   17  A    between atoms: _37  and  _40
REMARK   18  A    between atoms: _40  and  _41
REMARK   19  A    between atoms: _46  and  _47
REMARK   20  A    between atoms: _49  and  _51
REMARK   21  A    between atoms: _51  and  _52
REMARK   22  A    between atoms: _51  and  _54
REMARK   23  A    between atoms: _54  and  _55
REMARK   24  A    between atoms: _55  and  _56
REMARK   25  A    between atoms: _56  and  _57
REMARK   26  A    between atoms: _57  and  _58
REMARK   27  A    between atoms: _62  and  _64
REMARK   28  A    between atoms: _64  and  _65
REMARK   29  A    between atoms: _64  and  _67
REMARK   30  A    between atoms: _67  and  _68
REMARK   31  A    between atoms: _73  and  _74
REMARK   32  A    between atoms: _76  and  _78
REMARK   33  A    between atoms: _78  and  _79
REMARK   34  A    between atoms: _81  and  _83
REMARK   35  A    between atoms: _83  and  _84
REMARK   36  A    between atoms: _87  and  _89
REMARK   37  A    between atoms: _89  and  _90
REMARK   38  A    between atoms: _89  and  _92
REMARK   39  A    between atoms: _92  and  _93
REMARK   40  A    between atoms: _93  and  _94
REMARK   41  A    between atoms: _96  and  _98
REMARK   42  A    between atoms: _98  and  _99
REMARK   43  A    between atoms: _98  and  _101
REMARK   44  A    between atoms: _104  and  _106
REMARK   45  A    between atoms: _106  and  _107
REMARK   46  A    between atoms: _111  and  _112
REMARK   47  A    between atoms: _117  and  _119
REMARK   48  A    between atoms: _119  and  _120
REMARK   49  A    between atoms: _119  and  _122
REMARK   50  A    between atoms: _122  and  _123
REMARK   51  A    between atoms: _126  and  _128
REMARK   52  A    between atoms: _128  and  _129
REMARK   53  A    between atoms: _128  and  _131
REMARK   54  A    between atoms: _131  and  _132
REMARK   55  A    between atoms: _135  and  _137
REMARK   56  A    between atoms: _137  and  _138
REMARK   57  A    between atoms: _137  and  _140
REMARK   58  A    between atoms: _140  and  _141
REMARK   59  A    between atoms: _144  and  _146
REMARK   60  A    between atoms: _146  and  _147
REMARK   61  A    between atoms: _146  and  _149
REMARK   62  A    between atoms: _149  and  _150
REMARK   63  A    between atoms: _153  and  _155
REMARK   64  A    between atoms: _155  and  _156
REMARK   65  A    between atoms: _155  and  _158
REMARK   66  A    between atoms: _158  and  _159
REMARK   67  A    between atoms: _159  and  _160
REMARK   68  A    between atoms: _160  and  _161
REMARK   69  A    between atoms: _170  and  _172
REMARK   70  A    between atoms: _172  and  _173
REMARK   71  A    between atoms: _172  and  _175
REMARK   72  A    between atoms: _175  and  _176
REMARK   73  A    between atoms: _182  and  _184
REMARK   74  A    between atoms: _184  and  _185
REMARK   75  A    between atoms: _184  and  _187
REMARK   76  A    between atoms: _187  and  _188
REMARK   77  A    between atoms: _191  and  _193
REMARK   78  A    between atoms: _193  and  _194
REMARK   79  A    between atoms: _196  and  _198
REMARK   80  A    between atoms: _198  and  _199
REMARK   81  A    between atoms: _198  and  _201
REMARK   82  A    between atoms: _201  and  _202
REMARK   83  A    between atoms: _205  and  _207
REMARK   84  A    between atoms: _207  and  _208
REMARK   85  A    between atoms: _207  and  _210
REMARK   86  A    between atoms: _210  and  _211
REMARK   87  A    between atoms: _213  and  _215
REMARK   88  A    between atoms: _215  and  _216
REMARK   89  A    between atoms: _215  and  _218
REMARK   90  A    between atoms: _218  and  _219
REMARK   91  A    between atoms: _219  and  _220
REMARK   92  A    between atoms: _222  and  _224
REMARK   93  A    between atoms: _224  and  _225
REMARK   94  A    between atoms: _224  and  _227
REMARK   95  A    between atoms: _227  and  _228
REMARK   96  A    between atoms: _231  and  _233
REMARK   97  A    between atoms: _233  and  _234
REMARK   98  A    between atoms: _233  and  _236
REMARK   99  A    between atoms: _236  and  _237
REMARK  100  A    between atoms: _240  and  _242
REMARK  101  A    between atoms: _242  and  _243
REMARK  102  A    between atoms: _242  and  _245
REMARK  103  A    between atoms: _245  and  _246
REMARK  104  A    between atoms: _249  and  _251
REMARK  105  A    between atoms: _251  and  _252
REMARK  106  A    between atoms: _251  and  _254
REMARK  107  A    between atoms: _254  and  _255
REMARK  108  A    between atoms: _257  and  _259
REMARK  109  A    between atoms: _259  and  _260
REMARK  110  A    between atoms: _262  and  _264
REMARK  111  A    between atoms: _264  and  _265
REMARK  112  A    between atoms: _264  and  _267
REMARK  113  A    between atoms: _267  and  _268
REMARK  114  A    between atoms: _270  and  _272
REMARK  115  A    between atoms: _272  and  _273
REMARK  116  A    between atoms: _272  and  _275
REMARK  117  A    between atoms: _275  and  _276
REMARK  118  A    between atoms: _279  and  _281
REMARK  119  A    between atoms: _281  and  _282
REMARK  120  A    between atoms: _281  and  _284
REMARK  121  A    between atoms: _284  and  _285
REMARK  122  A    between atoms: _285  and  _286
REMARK  123  A    between atoms: _286  and  _287
REMARK  124  A    between atoms: _287  and  _288
REMARK  125  A    between atoms: _292  and  _294
REMARK  126  A    between atoms: _294  and  _295
REMARK  127  A    between atoms: _294  and  _297
REMARK  128  A    between atoms: _297  and  _298
REMARK  129  A    between atoms: _298  and  _299
REMARK  130  A    between atoms: _302  and  _304
REMARK  131  A    between atoms: _304  and  _305
REMARK  132  A    between atoms: _304  and  _307
REMARK  133  A    between atoms: _307  and  _308
REMARK  134  A    between atoms: _314  and  _316
REMARK  135  A    between atoms: _316  and  _317
REMARK  136  A    between atoms: _316  and  _319
REMARK  137  A    between atoms: _322  and  _324
REMARK  138  A    between atoms: _324  and  _325
REMARK  139  A    between atoms: _324  and  _327
REMARK  140  A    between atoms: _327  and  _328
REMARK  141  A    between atoms: _328  and  _329
REMARK  142  A    between atoms: _329  and  _330
REMARK  143  A    between atoms: _339  and  _341
REMARK  144  A    between atoms: _341  and  _342
REMARK  145  A    between atoms: _341  and  _344
REMARK  146  A    between atoms: _344  and  _345
REMARK  147  A    between atoms: _348  and  _350
REMARK  148  A    between atoms: _350  and  _351
REMARK  149  A    between atoms: _350  and  _353
REMARK  150  A    between atoms: _353  and  _354
REMARK  151  A    between atoms: _357  and  _359
REMARK  152  A    between atoms: _359  and  _360
REMARK  153  A    between atoms: _363  and  _365
REMARK  154  A    between atoms: _365  and  _366
REMARK  155  A    between atoms: _368  and  _370
REMARK  156  A    between atoms: _370  and  _371
REMARK  157  A    between atoms: _370  and  _373
REMARK  158  A    between atoms: _376  and  _378
REMARK  159  A    between atoms: _378  and  _379
REMARK  160  A    between atoms: _378  and  _381
REMARK  161  A    between atoms: _381  and  _382
REMARK  162  A    between atoms: _387  and  _388
REMARK  163  A    between atoms: _390  and  _392
REMARK  164  A    between atoms: _392  and  _393
REMARK  165  A    between atoms: _392  and  _395
REMARK  166  A    between atoms: _395  and  _396
REMARK  167  A    between atoms: _399  and  _401
REMARK  168  A    between atoms: _401  and  _402
REMARK  169  A    between atoms: _401  and  _404
REMARK  170  A    between atoms: _404  and  _405
REMARK  171  A    between atoms: _408  and  _410
REMARK  172  A    between atoms: _410  and  _411
REMARK  173  A    between atoms: _410  and  _413
REMARK  174  A    between atoms: _413  and  _414
REMARK  175  A    between atoms: _414  and  _415
REMARK  176  A    between atoms: _418  and  _420
REMARK  177  A    between atoms: _420  and  _421
REMARK  178  A    between atoms: _420  and  _423
REMARK  179  A    between atoms: _423  and  _424
REMARK  180  A    between atoms: _426  and  _428
REMARK  181  A    between atoms: _428  and  _429
REMARK  182  A    between atoms: _428  and  _431
REMARK  183  A    between atoms: _431  and  _432
REMARK  184  A    between atoms: _435  and  _437
REMARK  185  A    between atoms: _437  and  _438
REMARK  186  A    between atoms: _437  and  _440
REMARK  187  A    between atoms: _440  and  _441
REMARK  188  A    between atoms: _441  and  _442
REMARK  189  A    between atoms: _444  and  _446
REMARK  190  A    between atoms: _446  and  _447
REMARK  191  A    between atoms: _446  and  _449
REMARK  192  A    between atoms: _449  and  _450
REMARK  193  A    between atoms: _455  and  _457
REMARK  194  A    between atoms: _457  and  _458
REMARK  195  A    between atoms: _457  and  _460
REMARK  196  A    between atoms: _460  and  _461
REMARK  197  A    between atoms: _461  and  _462
REMARK  198  A    between atoms: _465  and  _467
REMARK  199  A    between atoms: _467  and  _468
REMARK  200  A    between atoms: _467  and  _470
REMARK  201  A    between atoms: _470  and  _471
REMARK  202  A    between atoms: _476  and  _477
REMARK  203  A    between atoms: _479  and  _481
REMARK  204  A    between atoms: _481  and  _482
REMARK  205  A    between atoms: _481  and  _484
REMARK  206  A    between atoms: _484  and  _485
REMARK  207  A    between atoms: _488  and  _490
REMARK  208  A    between atoms: _490  and  _491
REMARK  209  A    between atoms: _490  and  _493
REMARK  210  A    between atoms: _493  and  _494
REMARK  211  A    between atoms: _494  and  _495
REMARK  212  A    between atoms: _495  and  _496
REMARK  213  A    between atoms: _496  and  _497
REMARK  214  A    between atoms: _501  and  _503
REMARK  215  A    between atoms: _503  and  _504
REMARK  216  A    between atoms: _506  and  _508
REMARK  217  A    between atoms: _508  and  _509
REMARK  218  A    between atoms: _508  and  _511
REMARK  219  A    between atoms: _511  and  _512
REMARK  220  A    between atoms: _517  and  _518
REMARK  221  A    between atoms: _520  and  _522
REMARK  222  A    between atoms: _522  and  _523
REMARK  223  A    between atoms: _525  and  _527
REMARK  224  A    between atoms: _527  and  _528
REMARK  225  A    between atoms: _527  and  _530
REMARK  226  A    between atoms: _530  and  _531
REMARK                            x       y       z     vdW  Elec       q    Type
REMARK                         _______ _______ _______ _____ _____    ______ ____
ROOT
ATOM      1  C   GLY A   2      -1.205  21.726  64.753  0.00  0.00    +0.243 C 
ATOM      2  N   TYR A   3      -1.370  22.985  65.151  0.00  0.00    -0.297 N 
ATOM      3  H   TYR A   3      -2.161  23.223  65.782  0.00  0.00    +0.150 HD
ATOM      4  O   GLY A   2      -0.373  21.393  63.900  0.00  0.00    -0.273 OA
ENDROOT
BRANCH   2   5
ATOM      5  CA  TYR A   3      -0.452  24.041  64.712  0.00  0.00    +0.153 C 
BRANCH   5   6
ATOM      6  C   TYR A   3       0.602  24.169  65.789  0.00  0.00    +0.241 C 
ATOM      7  O   TYR A   3       0.306  24.017  66.979  0.00  0.00    -0.273 OA
ATOM      8  N   GLY A   4       1.833  24.447  65.379  0.00  0.00    -0.296 N 
ATOM      9  H   GLY A   4       2.022  24.556  64.362  0.00  0.00    +0.150 HD
BRANCH   8  10
ATOM     10  CA  GLY A   4       2.916  24.600  66.326  0.00  0.00    +0.163 C 
BRANCH  10  11
ATOM     11  C   GLY A   4       3.812  25.764  65.981  0.00  0.00    +0.229 C 
ATOM     12  O   GLY A   4       3.876  26.181  64.821  0.00  0.00    -0.286 OA
ENDBRANCH  10  11
ENDBRANCH   8  10
ENDBRANCH   5   6
BRANCH   5  13
ATOM     13  CB  TYR A   3      -1.138  25.408  64.547  0.00  0.00    +0.055 C 
BRANCH  13  14
ATOM     14  CG  TYR A   3      -2.286  25.495  63.559  0.00  0.00    -0.020 A 
ATOM     15  CD2 TYR A   3      -3.346  26.367  63.785  0.00  0.00    -0.001 A 
ATOM     16  CE2 TYR A   3      -4.394  26.481  62.886  0.00  0.00    +0.036 A 
ATOM     17  CZ  TYR A   3      -4.394  25.727  61.742  0.00  0.00    +0.134 A 
ATOM     18  CE1 TYR A   3      -3.348  24.864  61.483  0.00  0.00    +0.036 A 
ATOM     19  CD1 TYR A   3      -2.292  24.761  62.382  0.00  0.00    -0.001 A 
BRANCH  17  20
ATOM     20  OH  TYR A   3      -5.450  25.843  60.852  0.00  0.00    -0.506 OA
ATOM     21  HH  TYR A   3      -5.300  25.237  60.084  0.00  0.00    +0.292 HD
ENDBRANCH  17  20
ENDBRANCH  13  14
ENDBRANCH   5  13
ENDBRANCH   2   5
BRANCH   1  22
ATOM     22  CA  GLY A   2      -2.113  20.689  65.392  0.00  0.00    +0.176 C 
BRANCH  22  25
ATOM     23  C   LYS A   1      -3.456  18.846  64.574  0.00  0.00    +0.238 C 
ATOM     24  O   LYS A   1      -4.436  19.207  65.237  0.00  0.00    -0.274 OA
ATOM     25  N   GLY A   2      -2.297  19.502  64.568  0.00  0.00    -0.296 N 
ATOM     26  H   GLY A   2      -1.516  19.164  63.970  0.00  0.00    +0.150 HD
BRANCH  23  27
ATOM     27  CA  LYS A   1      -3.526  17.578  63.742  0.00  0.00    +0.145 C 
BRANCH  27  28
ATOM     28  N   LYS A   1      -4.881  17.062  63.716  0.00  0.00    -0.238 NA
ATOM     29  H   LYS A   1      -5.681  17.694  63.921  0.00  0.00    +0.142 HD
ENDBRANCH  27  28
BRANCH  27  30
ATOM     30  CB  LYS A   1      -3.012  17.790  62.325  0.00  0.00    +0.026 C 
BRANCH  30  31
ATOM     31  CG  LYS A   1      -3.848  18.724  61.459  0.00  0.00    -0.000 C 
BRANCH  31  32
ATOM     32  CD  LYS A   1      -3.691  18.341  59.979  0.00  0.00    -0.024 C 
BRANCH  32  33
ATOM     33  CE  LYS A   1      -4.539  19.212  59.054  0.00  0.00    -0.086 C 
BRANCH  33  34
ATOM     34  NZ  LYS A   1      -4.563  18.710  57.645  0.00  0.00    +0.380 N 
ATOM     35  HZ1 LYS A   1      -4.959  17.748  57.628  0.00  0.00    -0.089 HD
ATOM     36  HZ2 LYS A   1      -3.594  18.694  57.267  0.00  0.00    -0.089 HD
ATOM     37  HZ3 LYS A   1      -5.153  19.339  57.064  0.00  0.00    -0.089 HD
ENDBRANCH  33  34
ENDBRANCH  32  33
ENDBRANCH  31  32
ENDBRANCH  30  31
ENDBRANCH  27  30
ENDBRANCH  23  27
ENDBRANCH  22  25
ENDBRANCH   1  22
TORSDOF 16
REMARK  Name = ../refined-set-2016/3tza/3tza_pocket.pdb
REMARK  226 active torsions:
REMARK  status: ('A' for Active; 'I' for Inactive)
REMARK    1  A    between atoms: _1  and  _3
REMARK    2  A    between atoms: _3  and  _4
REMARK    3  A    between atoms: _3  and  _6
REMARK    4  A    between atoms: _6  and  _7
REMARK    5  A    between atoms: _10  and  _12
REMARK    6  A    between atoms: _12  and  _13
REMARK    7  A    between atoms: _12  and  _15
REMARK    8  A    between atoms: _15  and  _16
REMARK    9  A    between atoms: _16  and  _17
REMARK   10  A    between atoms: _20  and  _22
REMARK   11  A    between atoms: _22  and  _23
REMARK   12  A    between atoms: _22  and  _25
REMARK   13  A    between atoms: _25  and  _26
REMARK   14  A    between atoms: _29  and  _30
REMARK   15  A    between atoms: _35  and  _37
REMARK   16  A    between atoms: _37  and  _38
REMARK   17  A    between atoms: _37  and  _40
REMARK   18  A    between atoms: _40  and  _41
REMARK   19  A    between atoms: _46  and  _47
REMARK   20  A    between atoms: _49  and  _51
REMARK   21  A    between atoms: _51  and  _52
REMARK   22  A    between atoms: _51  and  _54
REMARK   23  A    between atoms: _54  and  _55
REMARK   24  A    between atoms: _55  and  _56
REMARK   25  A    between atoms: _56  and  _57
REMARK   26  A    between atoms: _57  and  _58
REMARK   27  A    between atoms: _62  and  _64
REMARK   28  A    between atoms: _64  and  _65
REMARK   29  A    between atoms: _64  and  _67
REMARK   30  A    between atoms: _67  and  _68
REMARK   31  A    between atoms: _73  and  _74
REMARK   32  A    between atoms: _76  and  _78
REMARK   33  A    between atoms: _78  and  _79
REMARK   34  A    between atoms: _81  and  _83
REMARK   35  A    between atoms: _83  and  _84
REMARK   36  A    between atoms: _87  and  _89
REMARK   37  A    between atoms: _89  and  _90
REMARK   38  A    between atoms: _89  and  _92
REMARK   39  A    between atoms: _92  and  _93
REMARK   40  A    between atoms: _93  and  _94
REMARK   41  A    between atoms: _96  and  _98
REMARK   42  A    between atoms: _98  and  _99
REMARK   43  A    between atoms: _98  and  _101
REMARK   44  A    between atoms: _104  and  _106
REMARK   45  A    between atoms: _106  and  _107
REMARK   46  A    between atoms: _111  and  _112
REMARK   47  A    between atoms: _117  and  _119
REMARK   48  A    between atoms: _119  and  _120
REMARK   49  A    between atoms: _119  and  _122
REMARK   50  A    between atoms: _122  and  _123
REMARK   51  A    between atoms: _126  and  _128
REMARK   52  A    between atoms: _128  and  _129
REMARK   53  A    between atoms: _128  and  _131
REMARK   54  A    between atoms: _131  and  _132
REMARK   55  A    between atoms: _135  and  _137
REMARK   56  A    between atoms: _137  and  _138
REMARK   57  A    between atoms: _137  and  _140
REMARK   58  A    between atoms: _140  and  _141
REMARK   59  A    between atoms: _144  and  _146
REMARK   60  A    between atoms: _146  and  _147
REMARK   61  A    between atoms: _146  and  _149
REMARK   62  A    between atoms: _149  and  _150
REMARK   63  A    between atoms: _153  and  _155
REMARK   64  A    between atoms: _155  and  _156
REMARK   65  A    between atoms: _155  and  _158
REMARK   66  A    between atoms: _158  and  _159
REMARK   67  A    between atoms: _159  and  _160
REMARK   68  A    between atoms: _160  and  _161
REMARK   69  A    between atoms: _170  and  _172
REMARK   70  A    between atoms: _172  and  _173
REMARK   71  A    between atoms: _172  and  _175
REMARK   72  A    between atoms: _175  and  _176
REMARK   73  A    between atoms: _182  and  _184
REMARK   74  A    between atoms: _184  and  _185
REMARK   75  A    between atoms: _184  and  _187
REMARK   76  A    between atoms: _187  and  _188
REMARK   77  A    between atoms: _191  and  _193
REMARK   78  A    between atoms: _193  and  _194
REMARK   79  A    between atoms: _196  and  _198
REMARK   80  A    between atoms: _198  and  _199
REMARK   81  A    between atoms: _198  and  _201
REMARK   82  A    between atoms: _201  and  _202
REMARK   83  A    between atoms: _205  and  _207
REMARK   84  A    between atoms: _207  and  _208
REMARK   85  A    between atoms: _207  and  _210
REMARK   86  A    between atoms: _210  and  _211
REMARK   87  A    between atoms: _213  and  _215
REMARK   88  A    between atoms: _215  and  _216
REMARK   89  A    between atoms: _215  and  _218
REMARK   90  A    between atoms: _218  and  _219
REMARK   91  A    between atoms: _219  and  _220
REMARK   92  A    between atoms: _222  and  _224
REMARK   93  A    between atoms: _224  and  _225
REMARK   94  A    between atoms: _224  and  _227
REMARK   95  A    between atoms: _227  and  _228
REMARK   96  A    between atoms: _231  and  _233
REMARK   97  A    between atoms: _233  and  _234
REMARK   98  A    between atoms: _233  and  _236
REMARK   99  A    between atoms: _236  and  _237
REMARK  100  A    between atoms: _240  and  _242
REMARK  101  A    between atoms: _242  and  _243
REMARK  102  A    between atoms: _242  and  _245
REMARK  103  A    between atoms: _245  and  _246
REMARK  104  A    between atoms: _249  and  _251
REMARK  105  A    between atoms: _251  and  _252
REMARK  106  A    between atoms: _251  and  _254
REMARK  107  A    between atoms: _254  and  _255
REMARK  108  A    between atoms: _257  and  _259
REMARK  109  A    between atoms: _259  and  _260
REMARK  110  A    between atoms: _262  and  _264
REMARK  111  A    between atoms: _264  and  _265
REMARK  112  A    between atoms: _264  and  _267
REMARK  113  A    between atoms: _267  and  _268
REMARK  114  A    between atoms: _270  and  _272
REMARK  115  A    between atoms: _272  and  _273
REMARK  116  A    between atoms: _272  and  _275
REMARK  117  A    between atoms: _275  and  _276
REMARK  118  A    between atoms: _279  and  _281
REMARK  119  A    between atoms: _281  and  _282
REMARK  120  A    between atoms: _281  and  _284
REMARK  121  A    between atoms: _284  and  _285
REMARK  122  A    between atoms: _285  and  _286
REMARK  123  A    between atoms: _286  and  _287
REMARK  124  A    between atoms: _287  and  _288
REMARK  125  A    between atoms: _292  and  _294
REMARK  126  A    between atoms: _294  and  _295
REMARK  127  A    between atoms: _294  and  _297
REMARK  128  A    between atoms: _297  and  _298
REMARK  129  A    between atoms: _298  and  _299
REMARK  130  A    between atoms: _302  and  _304
REMARK  131  A    between atoms: _304  and  _305
REMARK  132  A    between atoms: _304  and  _307
REMARK  133  A    between atoms: _307  and  _308
REMARK  134  A    between atoms: _314  and  _316
REMARK  135  A    between atoms: _316  and  _317
REMARK  136  A    between atoms: _316  and  _319
REMARK  137  A    between atoms: _322  and  _324
REMARK  138  A    between atoms: _324  and  _325
REMARK  139  A    between atoms: _324  and  _327
REMARK  140  A    between atoms: _327  and  _328
REMARK  141  A    between atoms: _328  and  _329
REMARK  142  A    between atoms: _329  and  _330
REMARK  143  A    between atoms: _339  and  _341
REMARK  144  A    between atoms: _341  and  _342
REMARK  145  A    between atoms: _341  and  _344
REMARK  146  A    between atoms: _344  and  _345
REMARK  147  A    between atoms: _348  and  _350
REMARK  148  A    between atoms: _350  and  _351
REMARK  149  A    between atoms: _350  and  _353
REMARK  150  A    between atoms: _353  and  _354
REMARK  151  A    between atoms: _357  and  _359
REMARK  152  A    between atoms: _359  and  _360
REMARK  153  A    between atoms: _363  and  _365
REMARK  154  A    between atoms: _365  and  _366
REMARK  155  A    between atoms: _368  and  _370
REMARK  156  A    between atoms: _370  and  _371
REMARK  157  A    between atoms: _370  and  _373
REMARK  158  A    between atoms: _376  and  _378
REMARK  159  A    between atoms: _378  and  _379
REMARK  160  A    between atoms: _378  and  _381
REMARK  161  A    between atoms: _381  and  _382
REMARK  162  A    between atoms: _387  and  _388
REMARK  163  A    between atoms: _390  and  _392
REMARK  164  A    between atoms: _392  and  _393
REMARK  165  A    between atoms: _392  and  _395
REMARK  166  A    between atoms: _395  and  _396
REMARK  167  A    between atoms: _399  and  _401
REMARK  168  A    between atoms: _401  and  _402
REMARK  169  A    between atoms: _401  and  _404
REMARK  170  A    between atoms: _404  and  _405
REMARK  171  A    between atoms: _408  and  _410
REMARK  172  A    between atoms: _410  and  _411
REMARK  173  A    between atoms: _410  and  _413
REMARK  174  A    between atoms: _413  and  _414
REMARK  175  A    between atoms: _414  and  _415
REMARK  176  A    between atoms: _418  and  _420
REMARK  177  A    between atoms: _420  and  _421
REMARK  178  A    between atoms: _420  and  _423
REMARK  179  A    between atoms: _423  and  _424
REMARK  180  A    between atoms: _426  and  _428
REMARK  181  A    between atoms: _428  and  _429
REMARK  182  A    between atoms: _428  and  _431
REMARK  183  A    between atoms: _431  and  _432
REMARK  184  A    between atoms: _435  and  _437
REMARK  185  A    between atoms: _437  and  _438
REMARK  186  A    between atoms: _437  and  _440
REMARK  187  A    between atoms: _440  and  _441
REMARK  188  A    between atoms: _441  and  _442
REMARK  189  A    between atoms: _444  and  _446
REMARK  190  A    between atoms: _446  and  _447
REMARK  191  A    between atoms: _446  and  _449
REMARK  192  A    between atoms: _449  and  _450
REMARK  193  A    between atoms: _455  and  _457
REMARK  194  A    between atoms: _457  and  _458
REMARK  195  A    between atoms: _457  and  _460
REMARK  196  A    between atoms: _460  and  _461
REMARK  197  A    between atoms: _461  and  _462
REMARK  198  A    between atoms: _465  and  _467
REMARK  199  A    between atoms: _467  and  _468
REMARK  200  A    between atoms: _467  and  _470
REMARK  201  A    between atoms: _470  and  _471
REMARK  202  A    between atoms: _476  and  _477
REMARK  203  A    between atoms: _479  and  _481
REMARK  204  A    between atoms: _481  and  _482
REMARK  205  A    between atoms: _481  and  _484
REMARK  206  A    between atoms: _484  and  _485
REMARK  207  A    between atoms: _488  and  _490
REMARK  208  A    between atoms: _490  and  _491
REMARK  209  A    between atoms: _490  and  _493
REMARK  210  A    between atoms: _493  and  _494
REMARK  211  A    between atoms: _494  and  _495
REMARK  212  A    between atoms: _495  and  _496
REMARK  213  A    between atoms: _496  and  _497
REMARK  214  A    between atoms: _501  and  _503
REMARK  215  A    between atoms: _503  and  _504
REMARK  216  A    between atoms: _506  and  _508
REMARK  217  A    between atoms: _508  and  _509
REMARK  218  A    between atoms: _508  and  _511
REMARK  219  A    between atoms: _511  and  _512
REMARK  220  A    between atoms: _517  and  _518
REMARK  221  A    between atoms: _520  and  _522
REMARK  222  A    between atoms: _522  and  _523
REMARK  223  A    between atoms: _525  and  _527
REMARK  224  A    between atoms: _527  and  _528
REMARK  225  A    between atoms: _527  and  _530
REMARK  226  A    between atoms: _530  and  _531
REMARK                            x       y       z     vdW  Elec       q    Type
REMARK                         _______ _______ _______ _____ _____    ______ ____
ROOT
ATOM      1  CG  TRP A   1     -12.305  31.386  66.526  0.00  0.00    -0.002 A 
ATOM      2  CD2 TRP A   1     -10.900  31.556  66.352  0.00  0.00    +0.013 A 
ATOM      3  CE3 TRP A   1      -9.931  32.330  66.996  0.00  0.00    +0.001 A 
ATOM      4  CZ3 TRP A   1      -8.621  32.259  66.553  0.00  0.00    +0.000 A 
ATOM      5  CH2 TRP A   1      -8.263  31.427  65.482  0.00  0.00    +0.001 A 
ATOM      6  CZ2 TRP A   1      -9.194  30.658  64.830  0.00  0.00    +0.017 A 
ATOM      7  CE2 TRP A   1     -10.510  30.724  65.283  0.00  0.00    +0.056 A 
ATOM      8  NE1 TRP A   1     -11.633  30.079  64.831  0.00  0.00    -0.352 N 
ATOM      9  HE1 TRP A   1     -11.665  29.398  64.045  0.00  0.00    +0.166 HD
ATOM     10  CD1 TRP A   1     -12.703  30.478  65.583  0.00  0.00    +0.068 A 
ENDROOT
BRANCH   1  11
ATOM     11  CB  TRP A   1     -13.169  32.045  67.561  0.00  0.00    +0.053 C 
BRANCH  11  12
ATOM     12  CA  TRP A   1     -13.387  33.550  67.375  0.00  0.00    +0.137 C 
BRANCH  12  13
ATOM     13  N   TRP A   1     -12.357  34.311  68.079  0.00  0.00    -0.239 NA
ATOM     14  H   TRP A   1     -12.059  34.007  69.028  0.00  0.00    +0.142 HD
ENDBRANCH  12  13
BRANCH  12  15
ATOM     15  C   TRP A   1     -14.810  33.881  67.826  0.00  0.00    +0.224 C 
ATOM     16  O   TRP A   1     -15.696  34.092  66.992  0.00  0.00    -0.287 OA
ENDBRANCH  12  15
ENDBRANCH  11  12
ENDBRANCH   1  11
TORSDOF 4
REMARK  Name = ../refined-set-2016/3tza/3tza_pocket.pdb
REMARK  226 active torsions:
REMARK  status: ('A' for Active; 'I' for Inactive)
REMARK    1  A    between atoms: _1  and  _3
REMARK    2  A    between atoms: _3  and  _4
REMARK    3  A    between atoms: _3  and  _6
REMARK    4  A    between atoms: _6  and  _7
REMARK    5  A    between atoms: _10  and  _12
REMARK    6  A    between atoms: _12  and  _13
REMARK    7  A    between atoms: _12  and  _15
REMARK    8  A    between atoms: _15  and  _16
REMARK    9  A    between atoms: _16  and  _17
REMARK   10  A    between atoms: _20  and  _22
REMARK   11  A    between atoms: _22  and  _23
REMARK   12  A    between atoms: _22  and  _25
REMARK   13  A    between atoms: _25  and  _26
REMARK   14  A    between atoms: _29  and  _30
REMARK   15  A    between atoms: _35  and  _37
REMARK   16  A    between atoms: _37  and  _38
REMARK   17  A    between atoms: _37  and  _40
REMARK   18  A    between atoms: _40  and  _41
REMARK   19  A    between atoms: _46  and  _47
REMARK   20  A    between atoms: _49  and  _51
REMARK   21  A    between atoms: _51  and  _52
REMARK   22  A    between atoms: _51  and  _54
REMARK   23  A    between atoms: _54  and  _55
REMARK   24  A    between atoms: _55  and  _56
REMARK   25  A    between atoms: _56  and  _57
REMARK   26  A    between atoms: _57  and  _58
REMARK   27  A    between atoms: _62  and  _64
REMARK   28  A    between atoms: _64  and  _65
REMARK   29  A    between atoms: _64  and  _67
REMARK   30  A    between atoms: _67  and  _68
REMARK   31  A    between atoms: _73  and  _74
REMARK   32  A    between atoms: _76  and  _78
REMARK   33  A    between atoms: _78  and  _79
REMARK   34  A    between atoms: _81  and  _83
REMARK   35  A    between atoms: _83  and  _84
REMARK   36  A    between atoms: _87  and  _89
REMARK   37  A    between atoms: _89  and  _90
REMARK   38  A    between atoms: _89  and  _92
REMARK   39  A    between atoms: _92  and  _93
REMARK   40  A    between atoms: _93  and  _94
REMARK   41  A    between atoms: _96  and  _98
REMARK   42  A    between atoms: _98  and  _99
REMARK   43  A    between atoms: _98  and  _101
REMARK   44  A    between atoms: _104  and  _106
REMARK   45  A    between atoms: _106  and  _107
REMARK   46  A    between atoms: _111  and  _112
REMARK   47  A    between atoms: _117  and  _119
REMARK   48  A    between atoms: _119  and  _120
REMARK   49  A    between atoms: _119  and  _122
REMARK   50  A    between atoms: _122  and  _123
REMARK   51  A    between atoms: _126  and  _128
REMARK   52  A    between atoms: _128  and  _129
REMARK   53  A    between atoms: _128  and  _131
REMARK   54  A    between atoms: _131  and  _132
REMARK   55  A    between atoms: _135  and  _137
REMARK   56  A    between atoms: _137  and  _138
REMARK   57  A    between atoms: _137  and  _140
REMARK   58  A    between atoms: _140  and  _141
REMARK   59  A    between atoms: _144  and  _146
REMARK   60  A    between atoms: _146  and  _147
REMARK   61  A    between atoms: _146  and  _149
REMARK   62  A    between atoms: _149  and  _150
REMARK   63  A    between atoms: _153  and  _155
REMARK   64  A    between atoms: _155  and  _156
REMARK   65  A    between atoms: _155  and  _158
REMARK   66  A    between atoms: _158  and  _159
REMARK   67  A    between atoms: _159  and  _160
REMARK   68  A    between atoms: _160  and  _161
REMARK   69  A    between atoms: _170  and  _172
REMARK   70  A    between atoms: _172  and  _173
REMARK   71  A    between atoms: _172  and  _175
REMARK   72  A    between atoms: _175  and  _176
REMARK   73  A    between atoms: _182  and  _184
REMARK   74  A    between atoms: _184  and  _185
REMARK   75  A    between atoms: _184  and  _187
REMARK   76  A    between atoms: _187  and  _188
REMARK   77  A    between atoms: _191  and  _193
REMARK   78  A    between atoms: _193  and  _194
REMARK   79  A    between atoms: _196  and  _198
REMARK   80  A    between atoms: _198  and  _199
REMARK   81  A    between atoms: _198  and  _201
REMARK   82  A    between atoms: _201  and  _202
REMARK   83  A    between atoms: _205  and  _207
REMARK   84  A    between atoms: _207  and  _208
REMARK   85  A    between atoms: _207  and  _210
REMARK   86  A    between atoms: _210  and  _211
REMARK   87  A    between atoms: _213  and  _215
REMARK   88  A    between atoms: _215  and  _216
REMARK   89  A    between atoms: _215  and  _218
REMARK   90  A    between atoms: _218  and  _219
REMARK   91  A    between atoms: _219  and  _220
REMARK   92  A    between atoms: _222  and  _224
REMARK   93  A    between atoms: _224  and  _225
REMARK   94  A    between atoms: _224  and  _227
REMARK   95  A    between atoms: _227  and  _228
REMARK   96  A    between atoms: _231  and  _233
REMARK   97  A    between atoms: _233  and  _234
REMARK   98  A    between atoms: _233  and  _236
REMARK   99  A    between atoms: _236  and  _237
REMARK  100  A    between atoms: _240  and  _242
REMARK  101  A    between atoms: _242  and  _243
REMARK  102  A    between atoms: _242  and  _245
REMARK  103  A    between atoms: _245  and  _246
REMARK  104  A    between atoms: _249  and  _251
REMARK  105  A    between atoms: _251  and  _252
REMARK  106  A    between atoms: _251  and  _254
REMARK  107  A    between atoms: _254  and  _255
REMARK  108  A    between atoms: _257  and  _259
REMARK  109  A    between atoms: _259  and  _260
REMARK  110  A    between atoms: _262  and  _264
REMARK  111  A    between atoms: _264  and  _265
REMARK  112  A    between atoms: _264  and  _267
REMARK  113  A    between atoms: _267  and  _268
REMARK  114  A    between atoms: _270  and  _272
REMARK  115  A    between atoms: _272  and  _273
REMARK  116  A    between atoms: _272  and  _275
REMARK  117  A    between atoms: _275  and  _276
REMARK  118  A    between atoms: _279  and  _281
REMARK  119  A    between atoms: _281  and  _282
REMARK  120  A    between atoms: _281  and  _284
REMARK  121  A    between atoms: _284  and  _285
REMARK  122  A    between atoms: _285  and  _286
REMARK  123  A    between atoms: _286  and  _287
REMARK  124  A    between atoms: _287  and  _288
REMARK  125  A    between atoms: _292  and  _294
REMARK  126  A    between atoms: _294  and  _295
REMARK  127  A    between atoms: _294  and  _297
REMARK  128  A    between atoms: _297  and  _298
REMARK  129  A    between atoms: _298  and  _299
REMARK  130  A    between atoms: _302  and  _304
REMARK  131  A    between atoms: _304  and  _305
REMARK  132  A    between atoms: _304  and  _307
REMARK  133  A    between atoms: _307  and  _308
REMARK  134  A    between atoms: _314  and  _316
REMARK  135  A    between atoms: _316  and  _317
REMARK  136  A    between atoms: _316  and  _319
REMARK  137  A    between atoms: _322  and  _324
REMARK  138  A    between atoms: _324  and  _325
REMARK  139  A    between atoms: _324  and  _327
REMARK  140  A    between atoms: _327  and  _328
REMARK  141  A    between atoms: _328  and  _329
REMARK  142  A    between atoms: _329  and  _330
REMARK  143  A    between atoms: _339  and  _341
REMARK  144  A    between atoms: _341  and  _342
REMARK  145  A    between atoms: _341  and  _344
REMARK  146  A    between atoms: _344  and  _345
REMARK  147  A    between atoms: _348  and  _350
REMARK  148  A    between atoms: _350  and  _351
REMARK  149  A    between atoms: _350  and  _353
REMARK  150  A    between atoms: _353  and  _354
REMARK  151  A    between atoms: _357  and  _359
REMARK  152  A    between atoms: _359  and  _360
REMARK  153  A    between atoms: _363  and  _365
REMARK  154  A    between atoms: _365  and  _366
REMARK  155  A    between atoms: _368  and  _370
REMARK  156  A    between atoms: _370  and  _371
REMARK  157  A    between atoms: _370  and  _373
REMARK  158  A    between atoms: _376  and  _378
REMARK  159  A    between atoms: _378  and  _379
REMARK  160  A    between atoms: _378  and  _381
REMARK  161  A    between atoms: _381  and  _382
REMARK  162  A    between atoms: _387  and  _388
REMARK  163  A    between atoms: _390  and  _392
REMARK  164  A    between atoms: _392  and  _393
REMARK  165  A    between atoms: _392  and  _395
REMARK  166  A    between atoms: _395  and  _396
REMARK  167  A    between atoms: _399  and  _401
REMARK  168  A    between atoms: _401  and  _402
REMARK  169  A    between atoms: _401  and  _404
REMARK  170  A    between atoms: _404  and  _405
REMARK  171  A    between atoms: _408  and  _410
REMARK  172  A    between atoms: _410  and  _411
REMARK  173  A    between atoms: _410  and  _413
REMARK  174  A    between atoms: _413  and  _414
REMARK  175  A    between atoms: _414  and  _415
REMARK  176  A    between atoms: _418  and  _420
REMARK  177  A    between atoms: _420  and  _421
REMARK  178  A    between atoms: _420  and  _423
REMARK  179  A    between atoms: _423  and  _424
REMARK  180  A    between atoms: _426  and  _428
REMARK  181  A    between atoms: _428  and  _429
REMARK  182  A    between atoms: _428  and  _431
REMARK  183  A    between atoms: _431  and  _432
REMARK  184  A    between atoms: _435  and  _437
REMARK  185  A    between atoms: _437  and  _438
REMARK  186  A    between atoms: _437  and  _440
REMARK  187  A    between atoms: _440  and  _441
REMARK  188  A    between atoms: _441  and  _442
REMARK  189  A    between atoms: _444  and  _446
REMARK  190  A    between atoms: _446  and  _447
REMARK  191  A    between atoms: _446  and  _449
REMARK  192  A    between atoms: _449  and  _450
REMARK  193  A    between atoms: _455  and  _457
REMARK  194  A    between atoms: _457  and  _458
REMARK  195  A    between atoms: _457  and  _460
REMARK  196  A    between atoms: _460  and  _461
REMARK  197  A    between atoms: _461  and  _462
REMARK  198  A    between atoms: _465  and  _467
REMARK  199  A    between atoms: _467  and  _468
REMARK  200  A    between atoms: _467  and  _470
REMARK  201  A    between atoms: _470  and  _471
REMARK  202  A    between atoms: _476  and  _477
REMARK  203  A    between atoms: _479  and  _481
REMARK  204  A    between atoms: _481  and  _482
REMARK  205  A    between atoms: _481  and  _484
REMARK  206  A    between atoms: _484  and  _485
REMARK  207  A    between atoms: _488  and  _490
REMARK  208  A    between atoms: _490  and  _491
REMARK  209  A    between atoms: _490  and  _493
REMARK  210  A    between atoms: _493  and  _494
REMARK  211  A    between atoms: _494  and  _495
REMARK  212  A    between atoms: _495  and  _496
REMARK  213  A    between atoms: _496  and  _497
REMARK  214  A    between atoms: _501  and  _503
REMARK  215  A    between atoms: _503  and  _504
REMARK  216  A    between atoms: _506  and  _508
REMARK  217  A    between atoms: _508  and  _509
REMARK  218  A    between atoms: _508  and  _511
REMARK  219  A    between atoms: _511  and  _512
REMARK  220  A    between atoms: _517  and  _518
REMARK  221  A    between atoms: _520  and  _522
REMARK  222  A    between atoms: _522  and  _523
REMARK  223  A    between atoms: _525  and  _527
REMARK  224  A    between atoms: _527  and  _528
REMARK  225  A    between atoms: _527  and  _530
REMARK  226  A    between atoms: _530  and  _531
REMARK                            x       y       z     vdW  Elec       q    Type
REMARK                         _______ _______ _______ _____ _____    ______ ____
ROOT
ATOM      1  O   HOH     1       1.197  18.909  52.865  0.00  0.00    +0.000 OA
ENDROOT
TORSDOF 0
REMARK  Name = ../refined-set-2016/3tza/3tza_pocket.pdb
REMARK  226 active torsions:
REMARK  status: ('A' for Active; 'I' for Inactive)
REMARK    1  A    between atoms: _1  and  _3
REMARK    2  A    between atoms: _3  and  _4
REMARK    3  A    between atoms: _3  and  _6
REMARK    4  A    between atoms: _6  and  _7
REMARK    5  A    between atoms: _10  and  _12
REMARK    6  A    between atoms: _12  and  _13
REMARK    7  A    between atoms: _12  and  _15
REMARK    8  A    between atoms: _15  and  _16
REMARK    9  A    between atoms: _16  and  _17
REMARK   10  A    between atoms: _20  and  _22
REMARK   11  A    between atoms: _22  and  _23
REMARK   12  A    between atoms: _22  and  _25
REMARK   13  A    between atoms: _25  and  _26
REMARK   14  A    between atoms: _29  and  _30
REMARK   15  A    between atoms: _35  and  _37
REMARK   16  A    between atoms: _37  and  _38
REMARK   17  A    between atoms: _37  and  _40
REMARK   18  A    between atoms: _40  and  _41
REMARK   19  A    between atoms: _46  and  _47
REMARK   20  A    between atoms: _49  and  _51
REMARK   21  A    between atoms: _51  and  _52
REMARK   22  A    between atoms: _51  and  _54
REMARK   23  A    between atoms: _54  and  _55
REMARK   24  A    between atoms: _55  and  _56
REMARK   25  A    between atoms: _56  and  _57
REMARK   26  A    between atoms: _57  and  _58
REMARK   27  A    between atoms: _62  and  _64
REMARK   28  A    between atoms: _64  and  _65
REMARK   29  A    between atoms: _64  and  _67
REMARK   30  A    between atoms: _67  and  _68
REMARK   31  A    between atoms: _73  and  _74
REMARK   32  A    between atoms: _76  and  _78
REMARK   33  A    between atoms: _78  and  _79
REMARK   34  A    between atoms: _81  and  _83
REMARK   35  A    between atoms: _83  and  _84
REMARK   36  A    between atoms: _87  and  _89
REMARK   37  A    between atoms: _89  and  _90
REMARK   38  A    between atoms: _89  and  _92
REMARK   39  A    between atoms: _92  and  _93
REMARK   40  A    between atoms: _93  and  _94
REMARK   41  A    between atoms: _96  and  _98
REMARK   42  A    between atoms: _98  and  _99
REMARK   43  A    between atoms: _98  and  _101
REMARK   44  A    between atoms: _104  and  _106
REMARK   45  A    between atoms: _106  and  _107
REMARK   46  A    between atoms: _111  and  _112
REMARK   47  A    between atoms: _117  and  _119
REMARK   48  A    between atoms: _119  and  _120
REMARK   49  A    between atoms: _119  and  _122
REMARK   50  A    between atoms: _122  and  _123
REMARK   51  A    between atoms: _126  and  _128
REMARK   52  A    between atoms: _128  and  _129
REMARK   53  A    between atoms: _128  and  _131
REMARK   54  A    between atoms: _131  and  _132
REMARK   55  A    between atoms: _135  and  _137
REMARK   56  A    between atoms: _137  and  _138
REMARK   57  A    between atoms: _137  and  _140
REMARK   58  A    between atoms: _140  and  _141
REMARK   59  A    between atoms: _144  and  _146
REMARK   60  A    between atoms: _146  and  _147
REMARK   61  A    between atoms: _146  and  _149
REMARK   62  A    between atoms: _149  and  _150
REMARK   63  A    between atoms: _153  and  _155
REMARK   64  A    between atoms: _155  and  _156
REMARK   65  A    between atoms: _155  and  _158
REMARK   66  A    between atoms: _158  and  _159
REMARK   67  A    between atoms: _159  and  _160
REMARK   68  A    between atoms: _160  and  _161
REMARK   69  A    between atoms: _170  and  _172
REMARK   70  A    between atoms: _172  and  _173
REMARK   71  A    between atoms: _172  and  _175
REMARK   72  A    between atoms: _175  and  _176
REMARK   73  A    between atoms: _182  and  _184
REMARK   74  A    between atoms: _184  and  _185
REMARK   75  A    between atoms: _184  and  _187
REMARK   76  A    between atoms: _187  and  _188
REMARK   77  A    between atoms: _191  and  _193
REMARK   78  A    between atoms: _193  and  _194
REMARK   79  A    between atoms: _196  and  _198
REMARK   80  A    between atoms: _198  and  _199
REMARK   81  A    between atoms: _198  and  _201
REMARK   82  A    between atoms: _201  and  _202
REMARK   83  A    between atoms: _205  and  _207
REMARK   84  A    between atoms: _207  and  _208
REMARK   85  A    between atoms: _207  and  _210
REMARK   86  A    between atoms: _210  and  _211
REMARK   87  A    between atoms: _213  and  _215
REMARK   88  A    between atoms: _215  and  _216
REMARK   89  A    between atoms: _215  and  _218
REMARK   90  A    between atoms: _218  and  _219
REMARK   91  A    between atoms: _219  and  _220
REMARK   92  A    between atoms: _222  and  _224
REMARK   93  A    between atoms: _224  and  _225
REMARK   94  A    between atoms: _224  and  _227
REMARK   95  A    between atoms: _227  and  _228
REMARK   96  A    between atoms: _231  and  _233
REMARK   97  A    between atoms: _233  and  _234
REMARK   98  A    between atoms: _233  and  _236
REMARK   99  A    between atoms: _236  and  _237
REMARK  100  A    between atoms: _240  and  _242
REMARK  101  A    between atoms: _242  and  _243
REMARK  102  A    between atoms: _242  and  _245
REMARK  103  A    between atoms: _245  and  _246
REMARK  104  A    between atoms: _249  and  _251
REMARK  105  A    between atoms: _251  and  _252
REMARK  106  A    between atoms: _251  and  _254
REMARK  107  A    between atoms: _254  and  _255
REMARK  108  A    between atoms: _257  and  _259
REMARK  109  A    between atoms: _259  and  _260
REMARK  110  A    between atoms: _262  and  _264
REMARK  111  A    between atoms: _264  and  _265
REMARK  112  A    between atoms: _264  and  _267
REMARK  113  A    between atoms: _267  and  _268
REMARK  114  A    between atoms: _270  and  _272
REMARK  115  A    between atoms: _272  and  _273
REMARK  116  A    between atoms: _272  and  _275
REMARK  117  A    between atoms: _275  and  _276
REMARK  118  A    between atoms: _279  and  _281
REMARK  119  A    between atoms: _281  and  _282
REMARK  120  A    between atoms: _281  and  _284
REMARK  121  A    between atoms: _284  and  _285
REMARK  122  A    between atoms: _285  and  _286
REMARK  123  A    between atoms: _286  and  _287
REMARK  124  A    between atoms: _287  and  _288
REMARK  125  A    between atoms: _292  and  _294
REMARK  126  A    between atoms: _294  and  _295
REMARK  127  A    between atoms: _294  and  _297
REMARK  128  A    between atoms: _297  and  _298
REMARK  129  A    between atoms: _298  and  _299
REMARK  130  A    between atoms: _302  and  _304
REMARK  131  A    between atoms: _304  and  _305
REMARK  132  A    between atoms: _304  and  _307
REMARK  133  A    between atoms: _307  and  _308
REMARK  134  A    between atoms: _314  and  _316
REMARK  135  A    between atoms: _316  and  _317
REMARK  136  A    between atoms: _316  and  _319
REMARK  137  A    between atoms: _322  and  _324
REMARK  138  A    between atoms: _324  and  _325
REMARK  139  A    between atoms: _324  and  _327
REMARK  140  A    between atoms: _327  and  _328
REMARK  141  A    between atoms: _328  and  _329
REMARK  142  A    between atoms: _329  and  _330
REMARK  143  A    between atoms: _339  and  _341
REMARK  144  A    between atoms: _341  and  _342
REMARK  145  A    between atoms: _341  and  _344
REMARK  146  A    between atoms: _344  and  _345
REMARK  147  A    between atoms: _348  and  _350
REMARK  148  A    between atoms: _350  and  _351
REMARK  149  A    between atoms: _350  and  _353
REMARK  150  A    between atoms: _353  and  _354
REMARK  151  A    between atoms: _357  and  _359
REMARK  152  A    between atoms: _359  and  _360
REMARK  153  A    between atoms: _363  and  _365
REMARK  154  A    between atoms: _365  and  _366
REMARK  155  A    between atoms: _368  and  _370
REMARK  156  A    between atoms: _370  and  _371
REMARK  157  A    between atoms: _370  and  _373
REMARK  158  A    between atoms: _376  and  _378
REMARK  159  A    between atoms: _378  and  _379
REMARK  160  A    between atoms: _378  and  _381
REMARK  161  A    between atoms: _381  and  _382
REMARK  162  A    between atoms: _387  and  _388
REMARK  163  A    between atoms: _390  and  _392
REMARK  164  A    between atoms: _392  and  _393
REMARK  165  A    between atoms: _392  and  _395
REMARK  166  A    between atoms: _395  and  _396
REMARK  167  A    between atoms: _399  and  _401
REMARK  168  A    between atoms: _401  and  _402
REMARK  169  A    between atoms: _401  and  _404
REMARK  170  A    between atoms: _404  and  _405
REMARK  171  A    between atoms: _408  and  _410
REMARK  172  A    between atoms: _410  and  _411
REMARK  173  A    between atoms: _410  and  _413
REMARK  174  A    between atoms: _413  and  _414
REMARK  175  A    between atoms: _414  and  _415
REMARK  176  A    between atoms: _418  and  _420
REMARK  177  A    between atoms: _420  and  _421
REMARK  178  A    between atoms: _420  and  _423
REMARK  179  A    between atoms: _423  and  _424
REMARK  180  A    between atoms: _426  and  _428
REMARK  181  A    between atoms: _428  and  _429
REMARK  182  A    between atoms: _428  and  _431
REMARK  183  A    between atoms: _431  and  _432
REMARK  184  A    between atoms: _435  and  _437
REMARK  185  A    between atoms: _437  and  _438
REMARK  186  A    between atoms: _437  and  _440
REMARK  187  A    between atoms: _440  and  _441
REMARK  188  A    between atoms: _441  and  _442
REMARK  189  A    between atoms: _444  and  _446
REMARK  190  A    between atoms: _446  and  _447
REMARK  191  A    between atoms: _446  and  _449
REMARK  192  A    between atoms: _449  and  _450
REMARK  193  A    between atoms: _455  and  _457
REMARK  194  A    between atoms: _457  and  _458
REMARK  195  A    between atoms: _457  and  _460
REMARK  196  A    between atoms: _460  and  _461
REMARK  197  A    between atoms: _461  and  _462
REMARK  198  A    between atoms: _465  and  _467
REMARK  199  A    between atoms: _467  and  _468
REMARK  200  A    between atoms: _467  and  _470
REMARK  201  A    between atoms: _470  and  _471
REMARK  202  A    between atoms: _476  and  _477
REMARK  203  A    between atoms: _479  and  _481
REMARK  204  A    between atoms: _481  and  _482
REMARK  205  A    between atoms: _481  and  _484
REMARK  206  A    between atoms: _484  and  _485
REMARK  207  A    between atoms: _488  and  _490
REMARK  208  A    between atoms: _490  and  _491
REMARK  209  A    between atoms: _490  and  _493
REMARK  210  A    between atoms: _493  and  _494
REMARK  211  A    between atoms: _494  and  _495
REMARK  212  A    between atoms: _495  and  _496
REMARK  213  A    between atoms: _496  and  _497
REMARK  214  A    between atoms: _501  and  _503
REMARK  215  A    between atoms: _503  and  _504
REMARK  216  A    between atoms: _506  and  _508
REMARK  217  A    between atoms: _508  and  _509
REMARK  218  A    between atoms: _508  and  _511
REMARK  219  A    between atoms: _511  and  _512
REMARK  220  A    between atoms: _517  and  _518
REMARK  221  A    between atoms: _520  and  _522
REMARK  222  A    between atoms: _522  and  _523
REMARK  223  A    between atoms: _525  and  _527
REMARK  224  A    between atoms: _527  and  _528
REMARK  225  A    between atoms: _527  and  _530
REMARK  226  A    between atoms: _530  and  _531
REMARK                            x       y       z     vdW  Elec       q    Type
REMARK                         _______ _______ _______ _____ _____    ______ ____
ROOT
ATOM      1  O   HOH     1      -1.920  18.205  56.640  0.00  0.00    +0.000 OA
ENDROOT
TORSDOF 0
REMARK  Name = ../refined-set-2016/3tza/3tza_pocket.pdb
REMARK  226 active torsions:
REMARK  status: ('A' for Active; 'I' for Inactive)
REMARK    1  A    between atoms: _1  and  _3
REMARK    2  A    between atoms: _3  and  _4
REMARK    3  A    between atoms: _3  and  _6
REMARK    4  A    between atoms: _6  and  _7
REMARK    5  A    between atoms: _10  and  _12
REMARK    6  A    between atoms: _12  and  _13
REMARK    7  A    between atoms: _12  and  _15
REMARK    8  A    between atoms: _15  and  _16
REMARK    9  A    between atoms: _16  and  _17
REMARK   10  A    between atoms: _20  and  _22
REMARK   11  A    between atoms: _22  and  _23
REMARK   12  A    between atoms: _22  and  _25
REMARK   13  A    between atoms: _25  and  _26
REMARK   14  A    between atoms: _29  and  _30
REMARK   15  A    between atoms: _35  and  _37
REMARK   16  A    between atoms: _37  and  _38
REMARK   17  A    between atoms: _37  and  _40
REMARK   18  A    between atoms: _40  and  _41
REMARK   19  A    between atoms: _46  and  _47
REMARK   20  A    between atoms: _49  and  _51
REMARK   21  A    between atoms: _51  and  _52
REMARK   22  A    between atoms: _51  and  _54
REMARK   23  A    between atoms: _54  and  _55
REMARK   24  A    between atoms: _55  and  _56
REMARK   25  A    between atoms: _56  and  _57
REMARK   26  A    between atoms: _57  and  _58
REMARK   27  A    between atoms: _62  and  _64
REMARK   28  A    between atoms: _64  and  _65
REMARK   29  A    between atoms: _64  and  _67
REMARK   30  A    between atoms: _67  and  _68
REMARK   31  A    between atoms: _73  and  _74
REMARK   32  A    between atoms: _76  and  _78
REMARK   33  A    between atoms: _78  and  _79
REMARK   34  A    between atoms: _81  and  _83
REMARK   35  A    between atoms: _83  and  _84
REMARK   36  A    between atoms: _87  and  _89
REMARK   37  A    between atoms: _89  and  _90
REMARK   38  A    between atoms: _89  and  _92
REMARK   39  A    between atoms: _92  and  _93
REMARK   40  A    between atoms: _93  and  _94
REMARK   41  A    between atoms: _96  and  _98
REMARK   42  A    between atoms: _98  and  _99
REMARK   43  A    between atoms: _98  and  _101
REMARK   44  A    between atoms: _104  and  _106
REMARK   45  A    between atoms: _106  and  _107
REMARK   46  A    between atoms: _111  and  _112
REMARK   47  A    between atoms: _117  and  _119
REMARK   48  A    between atoms: _119  and  _120
REMARK   49  A    between atoms: _119  and  _122
REMARK   50  A    between atoms: _122  and  _123
REMARK   51  A    between atoms: _126  and  _128
REMARK   52  A    between atoms: _128  and  _129
REMARK   53  A    between atoms: _128  and  _131
REMARK   54  A    between atoms: _131  and  _132
REMARK   55  A    between atoms: _135  and  _137
REMARK   56  A    between atoms: _137  and  _138
REMARK   57  A    between atoms: _137  and  _140
REMARK   58  A    between atoms: _140  and  _141
REMARK   59  A    between atoms: _144  and  _146
REMARK   60  A    between atoms: _146  and  _147
REMARK   61  A    between atoms: _146  and  _149
REMARK   62  A    between atoms: _149  and  _150
REMARK   63  A    between atoms: _153  and  _155
REMARK   64  A    between atoms: _155  and  _156
REMARK   65  A    between atoms: _155  and  _158
REMARK   66  A    between atoms: _158  and  _159
REMARK   67  A    between atoms: _159  and  _160
REMARK   68  A    between atoms: _160  and  _161
REMARK   69  A    between atoms: _170  and  _172
REMARK   70  A    between atoms: _172  and  _173
REMARK   71  A    between atoms: _172  and  _175
REMARK   72  A    between atoms: _175  and  _176
REMARK   73  A    between atoms: _182  and  _184
REMARK   74  A    between atoms: _184  and  _185
REMARK   75  A    between atoms: _184  and  _187
REMARK   76  A    between atoms: _187  and  _188
REMARK   77  A    between atoms: _191  and  _193
REMARK   78  A    between atoms: _193  and  _194
REMARK   79  A    between atoms: _196  and  _198
REMARK   80  A    between atoms: _198  and  _199
REMARK   81  A    between atoms: _198  and  _201
REMARK   82  A    between atoms: _201  and  _202
REMARK   83  A    between atoms: _205  and  _207
REMARK   84  A    between atoms: _207  and  _208
REMARK   85  A    between atoms: _207  and  _210
REMARK   86  A    between atoms: _210  and  _211
REMARK   87  A    between atoms: _213  and  _215
REMARK   88  A    between atoms: _215  and  _216
REMARK   89  A    between atoms: _215  and  _218
REMARK   90  A    between atoms: _218  and  _219
REMARK   91  A    between atoms: _219  and  _220
REMARK   92  A    between atoms: _222  and  _224
REMARK   93  A    between atoms: _224  and  _225
REMARK   94  A    between atoms: _224  and  _227
REMARK   95  A    between atoms: _227  and  _228
REMARK   96  A    between atoms: _231  and  _233
REMARK   97  A    between atoms: _233  and  _234
REMARK   98  A    between atoms: _233  and  _236
REMARK   99  A    between atoms: _236  and  _237
REMARK  100  A    between atoms: _240  and  _242
REMARK  101  A    between atoms: _242  and  _243
REMARK  102  A    between atoms: _242  and  _245
REMARK  103  A    between atoms: _245  and  _246
REMARK  104  A    between atoms: _249  and  _251
REMARK  105  A    between atoms: _251  and  _252
REMARK  106  A    between atoms: _251  and  _254
REMARK  107  A    between atoms: _254  and  _255
REMARK  108  A    between atoms: _257  and  _259
REMARK  109  A    between atoms: _259  and  _260
REMARK  110  A    between atoms: _262  and  _264
REMARK  111  A    between atoms: _264  and  _265
REMARK  112  A    between atoms: _264  and  _267
REMARK  113  A    between atoms: _267  and  _268
REMARK  114  A    between atoms: _270  and  _272
REMARK  115  A    between atoms: _272  and  _273
REMARK  116  A    between atoms: _272  and  _275
REMARK  117  A    between atoms: _275  and  _276
REMARK  118  A    between atoms: _279  and  _281
REMARK  119  A    between atoms: _281  and  _282
REMARK  120  A    between atoms: _281  and  _284
REMARK  121  A    between atoms: _284  and  _285
REMARK  122  A    between atoms: _285  and  _286
REMARK  123  A    between atoms: _286  and  _287
REMARK  124  A    between atoms: _287  and  _288
REMARK  125  A    between atoms: _292  and  _294
REMARK  126  A    between atoms: _294  and  _295
REMARK  127  A    between atoms: _294  and  _297
REMARK  128  A    between atoms: _297  and  _298
REMARK  129  A    between atoms: _298  and  _299
REMARK  130  A    between atoms: _302  and  _304
REMARK  131  A    between atoms: _304  and  _305
REMARK  132  A    between atoms: _304  and  _307
REMARK  133  A    between atoms: _307  and  _308
REMARK  134  A    between atoms: _314  and  _316
REMARK  135  A    between atoms: _316  and  _317
REMARK  136  A    between atoms: _316  and  _319
REMARK  137  A    between atoms: _322  and  _324
REMARK  138  A    between atoms: _324  and  _325
REMARK  139  A    between atoms: _324  and  _327
REMARK  140  A    between atoms: _327  and  _328
REMARK  141  A    between atoms: _328  and  _329
REMARK  142  A    between atoms: _329  and  _330
REMARK  143  A    between atoms: _339  and  _341
REMARK  144  A    between atoms: _341  and  _342
REMARK  145  A    between atoms: _341  and  _344
REMARK  146  A    between atoms: _344  and  _345
REMARK  147  A    between atoms: _348  and  _350
REMARK  148  A    between atoms: _350  and  _351
REMARK  149  A    between atoms: _350  and  _353
REMARK  150  A    between atoms: _353  and  _354
REMARK  151  A    between atoms: _357  and  _359
REMARK  152  A    between atoms: _359  and  _360
REMARK  153  A    between atoms: _363  and  _365
REMARK  154  A    between atoms: _365  and  _366
REMARK  155  A    between atoms: _368  and  _370
REMARK  156  A    between atoms: _370  and  _371
REMARK  157  A    between atoms: _370  and  _373
REMARK  158  A    between atoms: _376  and  _378
REMARK  159  A    between atoms: _378  and  _379
REMARK  160  A    between atoms: _378  and  _381
REMARK  161  A    between atoms: _381  and  _382
REMARK  162  A    between atoms: _387  and  _388
REMARK  163  A    between atoms: _390  and  _392
REMARK  164  A    between atoms: _392  and  _393
REMARK  165  A    between atoms: _392  and  _395
REMARK  166  A    between atoms: _395  and  _396
REMARK  167  A    between atoms: _399  and  _401
REMARK  168  A    between atoms: _401  and  _402
REMARK  169  A    between atoms: _401  and  _404
REMARK  170  A    between atoms: _404  and  _405
REMARK  171  A    between atoms: _408  and  _410
REMARK  172  A    between atoms: _410  and  _411
REMARK  173  A    between atoms: _410  and  _413
REMARK  174  A    between atoms: _413  and  _414
REMARK  175  A    between atoms: _414  and  _415
REMARK  176  A    between atoms: _418  and  _420
REMARK  177  A    between atoms: _420  and  _421
REMARK  178  A    between atoms: _420  and  _423
REMARK  179  A    between atoms: _423  and  _424
REMARK  180  A    between atoms: _426  and  _428
REMARK  181  A    between atoms: _428  and  _429
REMARK  182  A    between atoms: _428  and  _431
REMARK  183  A    between atoms: _431  and  _432
REMARK  184  A    between atoms: _435  and  _437
REMARK  185  A    between atoms: _437  and  _438
REMARK  186  A    between atoms: _437  and  _440
REMARK  187  A    between atoms: _440  and  _441
REMARK  188  A    between atoms: _441  and  _442
REMARK  189  A    between atoms: _444  and  _446
REMARK  190  A    between atoms: _446  and  _447
REMARK  191  A    between atoms: _446  and  _449
REMARK  192  A    between atoms: _449  and  _450
REMARK  193  A    between atoms: _455  and  _457
REMARK  194  A    between atoms: _457  and  _458
REMARK  195  A    between atoms: _457  and  _460
REMARK  196  A    between atoms: _460  and  _461
REMARK  197  A    between atoms: _461  and  _462
REMARK  198  A    between atoms: _465  and  _467
REMARK  199  A    between atoms: _467  and  _468
REMARK  200  A    between atoms: _467  and  _470
REMARK  201  A    between atoms: _470  and  _471
REMARK  202  A    between atoms: _476  and  _477
REMARK  203  A    between atoms: _479  and  _481
REMARK  204  A    between atoms: _481  and  _482
REMARK  205  A    between atoms: _481  and  _484
REMARK  206  A    between atoms: _484  and  _485
REMARK  207  A    between atoms: _488  and  _490
REMARK  208  A    between atoms: _490  and  _491
REMARK  209  A    between atoms: _490  and  _493
REMARK  210  A    between atoms: _493  and  _494
REMARK  211  A    between atoms: _494  and  _495
REMARK  212  A    between atoms: _495  and  _496
REMARK  213  A    between atoms: _496  and  _497
REMARK  214  A    between atoms: _501  and  _503
REMARK  215  A    between atoms: _503  and  _504
REMARK  216  A    between atoms: _506  and  _508
REMARK  217  A    between atoms: _508  and  _509
REMARK  218  A    between atoms: _508  and  _511
REMARK  219  A    between atoms: _511  and  _512
REMARK  220  A    between atoms: _517  and  _518
REMARK  221  A    between atoms: _520  and  _522
REMARK  222  A    between atoms: _522  and  _523
REMARK  223  A    between atoms: _525  and  _527
REMARK  224  A    between atoms: _527  and  _528
REMARK  225  A    between atoms: _527  and  _530
REMARK  226  A    between atoms: _530  and  _531
REMARK                            x       y       z     vdW  Elec       q    Type
REMARK                         _______ _______ _______ _____ _____    ______ ____
ROOT
ATOM      1  O   HOH     1      -5.012  20.873  55.777  0.00  0.00    +0.000 OA
ENDROOT
TORSDOF 0
REMARK  Name = ../refined-set-2016/3tza/3tza_pocket.pdb
REMARK  226 active torsions:
REMARK  status: ('A' for Active; 'I' for Inactive)
REMARK    1  A    between atoms: _1  and  _3
REMARK    2  A    between atoms: _3  and  _4
REMARK    3  A    between atoms: _3  and  _6
REMARK    4  A    between atoms: _6  and  _7
REMARK    5  A    between atoms: _10  and  _12
REMARK    6  A    between atoms: _12  and  _13
REMARK    7  A    between atoms: _12  and  _15
REMARK    8  A    between atoms: _15  and  _16
REMARK    9  A    between atoms: _16  and  _17
REMARK   10  A    between atoms: _20  and  _22
REMARK   11  A    between atoms: _22  and  _23
REMARK   12  A    between atoms: _22  and  _25
REMARK   13  A    between atoms: _25  and  _26
REMARK   14  A    between atoms: _29  and  _30
REMARK   15  A    between atoms: _35  and  _37
REMARK   16  A    between atoms: _37  and  _38
REMARK   17  A    between atoms: _37  and  _40
REMARK   18  A    between atoms: _40  and  _41
REMARK   19  A    between atoms: _46  and  _47
REMARK   20  A    between atoms: _49  and  _51
REMARK   21  A    between atoms: _51  and  _52
REMARK   22  A    between atoms: _51  and  _54
REMARK   23  A    between atoms: _54  and  _55
REMARK   24  A    between atoms: _55  and  _56
REMARK   25  A    between atoms: _56  and  _57
REMARK   26  A    between atoms: _57  and  _58
REMARK   27  A    between atoms: _62  and  _64
REMARK   28  A    between atoms: _64  and  _65
REMARK   29  A    between atoms: _64  and  _67
REMARK   30  A    between atoms: _67  and  _68
REMARK   31  A    between atoms: _73  and  _74
REMARK   32  A    between atoms: _76  and  _78
REMARK   33  A    between atoms: _78  and  _79
REMARK   34  A    between atoms: _81  and  _83
REMARK   35  A    between atoms: _83  and  _84
REMARK   36  A    between atoms: _87  and  _89
REMARK   37  A    between atoms: _89  and  _90
REMARK   38  A    between atoms: _89  and  _92
REMARK   39  A    between atoms: _92  and  _93
REMARK   40  A    between atoms: _93  and  _94
REMARK   41  A    between atoms: _96  and  _98
REMARK   42  A    between atoms: _98  and  _99
REMARK   43  A    between atoms: _98  and  _101
REMARK   44  A    between atoms: _104  and  _106
REMARK   45  A    between atoms: _106  and  _107
REMARK   46  A    between atoms: _111  and  _112
REMARK   47  A    between atoms: _117  and  _119
REMARK   48  A    between atoms: _119  and  _120
REMARK   49  A    between atoms: _119  and  _122
REMARK   50  A    between atoms: _122  and  _123
REMARK   51  A    between atoms: _126  and  _128
REMARK   52  A    between atoms: _128  and  _129
REMARK   53  A    between atoms: _128  and  _131
REMARK   54  A    between atoms: _131  and  _132
REMARK   55  A    between atoms: _135  and  _137
REMARK   56  A    between atoms: _137  and  _138
REMARK   57  A    between atoms: _137  and  _140
REMARK   58  A    between atoms: _140  and  _141
REMARK   59  A    between atoms: _144  and  _146
REMARK   60  A    between atoms: _146  and  _147
REMARK   61  A    between atoms: _146  and  _149
REMARK   62  A    between atoms: _149  and  _150
REMARK   63  A    between atoms: _153  and  _155
REMARK   64  A    between atoms: _155  and  _156
REMARK   65  A    between atoms: _155  and  _158
REMARK   66  A    between atoms: _158  and  _159
REMARK   67  A    between atoms: _159  and  _160
REMARK   68  A    between atoms: _160  and  _161
REMARK   69  A    between atoms: _170  and  _172
REMARK   70  A    between atoms: _172  and  _173
REMARK   71  A    between atoms: _172  and  _175
REMARK   72  A    between atoms: _175  and  _176
REMARK   73  A    between atoms: _182  and  _184
REMARK   74  A    between atoms: _184  and  _185
REMARK   75  A    between atoms: _184  and  _187
REMARK   76  A    between atoms: _187  and  _188
REMARK   77  A    between atoms: _191  and  _193
REMARK   78  A    between atoms: _193  and  _194
REMARK   79  A    between atoms: _196  and  _198
REMARK   80  A    between atoms: _198  and  _199
REMARK   81  A    between atoms: _198  and  _201
REMARK   82  A    between atoms: _201  and  _202
REMARK   83  A    between atoms: _205  and  _207
REMARK   84  A    between atoms: _207  and  _208
REMARK   85  A    between atoms: _207  and  _210
REMARK   86  A    between atoms: _210  and  _211
REMARK   87  A    between atoms: _213  and  _215
REMARK   88  A    between atoms: _215  and  _216
REMARK   89  A    between atoms: _215  and  _218
REMARK   90  A    between atoms: _218  and  _219
REMARK   91  A    between atoms: _219  and  _220
REMARK   92  A    between atoms: _222  and  _224
REMARK   93  A    between atoms: _224  and  _225
REMARK   94  A    between atoms: _224  and  _227
REMARK   95  A    between atoms: _227  and  _228
REMARK   96  A    between atoms: _231  and  _233
REMARK   97  A    between atoms: _233  and  _234
REMARK   98  A    between atoms: _233  and  _236
REMARK   99  A    between atoms: _236  and  _237
REMARK  100  A    between atoms: _240  and  _242
REMARK  101  A    between atoms: _242  and  _243
REMARK  102  A    between atoms: _242  and  _245
REMARK  103  A    between atoms: _245  and  _246
REMARK  104  A    between atoms: _249  and  _251
REMARK  105  A    between atoms: _251  and  _252
REMARK  106  A    between atoms: _251  and  _254
REMARK  107  A    between atoms: _254  and  _255
REMARK  108  A    between atoms: _257  and  _259
REMARK  109  A    between atoms: _259  and  _260
REMARK  110  A    between atoms: _262  and  _264
REMARK  111  A    between atoms: _264  and  _265
REMARK  112  A    between atoms: _264  and  _267
REMARK  113  A    between atoms: _267  and  _268
REMARK  114  A    between atoms: _270  and  _272
REMARK  115  A    between atoms: _272  and  _273
REMARK  116  A    between atoms: _272  and  _275
REMARK  117  A    between atoms: _275  and  _276
REMARK  118  A    between atoms: _279  and  _281
REMARK  119  A    between atoms: _281  and  _282
REMARK  120  A    between atoms: _281  and  _284
REMARK  121  A    between atoms: _284  and  _285
REMARK  122  A    between atoms: _285  and  _286
REMARK  123  A    between atoms: _286  and  _287
REMARK  124  A    between atoms: _287  and  _288
REMARK  125  A    between atoms: _292  and  _294
REMARK  126  A    between atoms: _294  and  _295
REMARK  127  A    between atoms: _294  and  _297
REMARK  128  A    between atoms: _297  and  _298
REMARK  129  A    between atoms: _298  and  _299
REMARK  130  A    between atoms: _302  and  _304
REMARK  131  A    between atoms: _304  and  _305
REMARK  132  A    between atoms: _304  and  _307
REMARK  133  A    between atoms: _307  and  _308
REMARK  134  A    between atoms: _314  and  _316
REMARK  135  A    between atoms: _316  and  _317
REMARK  136  A    between atoms: _316  and  _319
REMARK  137  A    between atoms: _322  and  _324
REMARK  138  A    between atoms: _324  and  _325
REMARK  139  A    between atoms: _324  and  _327
REMARK  140  A    between atoms: _327  and  _328
REMARK  141  A    between atoms: _328  and  _329
REMARK  142  A    between atoms: _329  and  _330
REMARK  143  A    between atoms: _339  and  _341
REMARK  144  A    between atoms: _341  and  _342
REMARK  145  A    between atoms: _341  and  _344
REMARK  146  A    between atoms: _344  and  _345
REMARK  147  A    between atoms: _348  and  _350
REMARK  148  A    between atoms: _350  and  _351
REMARK  149  A    between atoms: _350  and  _353
REMARK  150  A    between atoms: _353  and  _354
REMARK  151  A    between atoms: _357  and  _359
REMARK  152  A    between atoms: _359  and  _360
REMARK  153  A    between atoms: _363  and  _365
REMARK  154  A    between atoms: _365  and  _366
REMARK  155  A    between atoms: _368  and  _370
REMARK  156  A    between atoms: _370  and  _371
REMARK  157  A    between atoms: _370  and  _373
REMARK  158  A    between atoms: _376  and  _378
REMARK  159  A    between atoms: _378  and  _379
REMARK  160  A    between atoms: _378  and  _381
REMARK  161  A    between atoms: _381  and  _382
REMARK  162  A    between atoms: _387  and  _388
REMARK  163  A    between atoms: _390  and  _392
REMARK  164  A    between atoms: _392  and  _393
REMARK  165  A    between atoms: _392  and  _395
REMARK  166  A    between atoms: _395  and  _396
REMARK  167  A    between atoms: _399  and  _401
REMARK  168  A    between atoms: _401  and  _402
REMARK  169  A    between atoms: _401  and  _404
REMARK  170  A    between atoms: _404  and  _405
REMARK  171  A    between atoms: _408  and  _410
REMARK  172  A    between atoms: _410  and  _411
REMARK  173  A    between atoms: _410  and  _413
REMARK  174  A    between atoms: _413  and  _414
REMARK  175  A    between atoms: _414  and  _415
REMARK  176  A    between atoms: _418  and  _420
REMARK  177  A    between atoms: _420  and  _421
REMARK  178  A    between atoms: _420  and  _423
REMARK  179  A    between atoms: _423  and  _424
REMARK  180  A    between atoms: _426  and  _428
REMARK  181  A    between atoms: _428  and  _429
REMARK  182  A    between atoms: _428  and  _431
REMARK  183  A    between atoms: _431  and  _432
REMARK  184  A    between atoms: _435  and  _437
REMARK  185  A    between atoms: _437  and  _438
REMARK  186  A    between atoms: _437  and  _440
REMARK  187  A    between atoms: _440  and  _441
REMARK  188  A    between atoms: _441  and  _442
REMARK  189  A    between atoms: _444  and  _446
REMARK  190  A    between atoms: _446  and  _447
REMARK  191  A    between atoms: _446  and  _449
REMARK  192  A    between atoms: _449  and  _450
REMARK  193  A    between atoms: _455  and  _457
REMARK  194  A    between atoms: _457  and  _458
REMARK  195  A    between atoms: _457  and  _460
REMARK  196  A    between atoms: _460  and  _461
REMARK  197  A    between atoms: _461  and  _462
REMARK  198  A    between atoms: _465  and  _467
REMARK  199  A    between atoms: _467  and  _468
REMARK  200  A    between atoms: _467  and  _470
REMARK  201  A    between atoms: _470  and  _471
REMARK  202  A    between atoms: _476  and  _477
REMARK  203  A    between atoms: _479  and  _481
REMARK  204  A    between atoms: _481  and  _482
REMARK  205  A    between atoms: _481  and  _484
REMARK  206  A    between atoms: _484  and  _485
REMARK  207  A    between atoms: _488  and  _490
REMARK  208  A    between atoms: _490  and  _491
REMARK  209  A    between atoms: _490  and  _493
REMARK  210  A    between atoms: _493  and  _494
REMARK  211  A    between atoms: _494  and  _495
REMARK  212  A    between atoms: _495  and  _496
REMARK  213  A    between atoms: _496  and  _497
REMARK  214  A    between atoms: _501  and  _503
REMARK  215  A    between atoms: _503  and  _504
REMARK  216  A    between atoms: _506  and  _508
REMARK  217  A    between atoms: _508  and  _509
REMARK  218  A    between atoms: _508  and  _511
REMARK  219  A    between atoms: _511  and  _512
REMARK  220  A    between atoms: _517  and  _518
REMARK  221  A    between atoms: _520  and  _522
REMARK  222  A    between atoms: _522  and  _523
REMARK  223  A    between atoms: _525  and  _527
REMARK  224  A    between atoms: _527  and  _528
REMARK  225  A    between atoms: _527  and  _530
REMARK  226  A    between atoms: _530  and  _531
REMARK                            x       y       z     vdW  Elec       q    Type
REMARK                         _______ _______ _______ _____ _____    ______ ____
ROOT
ATOM      1  O   HOH     1       1.883  23.649  52.121  0.00  0.00    +0.000 OA
ENDROOT
TORSDOF 0
REMARK  Name = ../refined-set-2016/3tza/3tza_pocket.pdb
REMARK  226 active torsions:
REMARK  status: ('A' for Active; 'I' for Inactive)
REMARK    1  A    between atoms: _1  and  _3
REMARK    2  A    between atoms: _3  and  _4
REMARK    3  A    between atoms: _3  and  _6
REMARK    4  A    between atoms: _6  and  _7
REMARK    5  A    between atoms: _10  and  _12
REMARK    6  A    between atoms: _12  and  _13
REMARK    7  A    between atoms: _12  and  _15
REMARK    8  A    between atoms: _15  and  _16
REMARK    9  A    between atoms: _16  and  _17
REMARK   10  A    between atoms: _20  and  _22
REMARK   11  A    between atoms: _22  and  _23
REMARK   12  A    between atoms: _22  and  _25
REMARK   13  A    between atoms: _25  and  _26
REMARK   14  A    between atoms: _29  and  _30
REMARK   15  A    between atoms: _35  and  _37
REMARK   16  A    between atoms: _37  and  _38
REMARK   17  A    between atoms: _37  and  _40
REMARK   18  A    between atoms: _40  and  _41
REMARK   19  A    between atoms: _46  and  _47
REMARK   20  A    between atoms: _49  and  _51
REMARK   21  A    between atoms: _51  and  _52
REMARK   22  A    between atoms: _51  and  _54
REMARK   23  A    between atoms: _54  and  _55
REMARK   24  A    between atoms: _55  and  _56
REMARK   25  A    between atoms: _56  and  _57
REMARK   26  A    between atoms: _57  and  _58
REMARK   27  A    between atoms: _62  and  _64
REMARK   28  A    between atoms: _64  and  _65
REMARK   29  A    between atoms: _64  and  _67
REMARK   30  A    between atoms: _67  and  _68
REMARK   31  A    between atoms: _73  and  _74
REMARK   32  A    between atoms: _76  and  _78
REMARK   33  A    between atoms: _78  and  _79
REMARK   34  A    between atoms: _81  and  _83
REMARK   35  A    between atoms: _83  and  _84
REMARK   36  A    between atoms: _87  and  _89
REMARK   37  A    between atoms: _89  and  _90
REMARK   38  A    between atoms: _89  and  _92
REMARK   39  A    between atoms: _92  and  _93
REMARK   40  A    between atoms: _93  and  _94
REMARK   41  A    between atoms: _96  and  _98
REMARK   42  A    between atoms: _98  and  _99
REMARK   43  A    between atoms: _98  and  _101
REMARK   44  A    between atoms: _104  and  _106
REMARK   45  A    between atoms: _106  and  _107
REMARK   46  A    between atoms: _111  and  _112
REMARK   47  A    between atoms: _117  and  _119
REMARK   48  A    between atoms: _119  and  _120
REMARK   49  A    between atoms: _119  and  _122
REMARK   50  A    between atoms: _122  and  _123
REMARK   51  A    between atoms: _126  and  _128
REMARK   52  A    between atoms: _128  and  _129
REMARK   53  A    between atoms: _128  and  _131
REMARK   54  A    between atoms: _131  and  _132
REMARK   55  A    between atoms: _135  and  _137
REMARK   56  A    between atoms: _137  and  _138
REMARK   57  A    between atoms: _137  and  _140
REMARK   58  A    between atoms: _140  and  _141
REMARK   59  A    between atoms: _144  and  _146
REMARK   60  A    between atoms: _146  and  _147
REMARK   61  A    between atoms: _146  and  _149
REMARK   62  A    between atoms: _149  and  _150
REMARK   63  A    between atoms: _153  and  _155
REMARK   64  A    between atoms: _155  and  _156
REMARK   65  A    between atoms: _155  and  _158
REMARK   66  A    between atoms: _158  and  _159
REMARK   67  A    between atoms: _159  and  _160
REMARK   68  A    between atoms: _160  and  _161
REMARK   69  A    between atoms: _170  and  _172
REMARK   70  A    between atoms: _172  and  _173
REMARK   71  A    between atoms: _172  and  _175
REMARK   72  A    between atoms: _175  and  _176
REMARK   73  A    between atoms: _182  and  _184
REMARK   74  A    between atoms: _184  and  _185
REMARK   75  A    between atoms: _184  and  _187
REMARK   76  A    between atoms: _187  and  _188
REMARK   77  A    between atoms: _191  and  _193
REMARK   78  A    between atoms: _193  and  _194
REMARK   79  A    between atoms: _196  and  _198
REMARK   80  A    between atoms: _198  and  _199
REMARK   81  A    between atoms: _198  and  _201
REMARK   82  A    between atoms: _201  and  _202
REMARK   83  A    between atoms: _205  and  _207
REMARK   84  A    between atoms: _207  and  _208
REMARK   85  A    between atoms: _207  and  _210
REMARK   86  A    between atoms: _210  and  _211
REMARK   87  A    between atoms: _213  and  _215
REMARK   88  A    between atoms: _215  and  _216
REMARK   89  A    between atoms: _215  and  _218
REMARK   90  A    between atoms: _218  and  _219
REMARK   91  A    between atoms: _219  and  _220
REMARK   92  A    between atoms: _222  and  _224
REMARK   93  A    between atoms: _224  and  _225
REMARK   94  A    between atoms: _224  and  _227
REMARK   95  A    between atoms: _227  and  _228
REMARK   96  A    between atoms: _231  and  _233
REMARK   97  A    between atoms: _233  and  _234
REMARK   98  A    between atoms: _233  and  _236
REMARK   99  A    between atoms: _236  and  _237
REMARK  100  A    between atoms: _240  and  _242
REMARK  101  A    between atoms: _242  and  _243
REMARK  102  A    between atoms: _242  and  _245
REMARK  103  A    between atoms: _245  and  _246
REMARK  104  A    between atoms: _249  and  _251
REMARK  105  A    between atoms: _251  and  _252
REMARK  106  A    between atoms: _251  and  _254
REMARK  107  A    between atoms: _254  and  _255
REMARK  108  A    between atoms: _257  and  _259
REMARK  109  A    between atoms: _259  and  _260
REMARK  110  A    between atoms: _262  and  _264
REMARK  111  A    between atoms: _264  and  _265
REMARK  112  A    between atoms: _264  and  _267
REMARK  113  A    between atoms: _267  and  _268
REMARK  114  A    between atoms: _270  and  _272
REMARK  115  A    between atoms: _272  and  _273
REMARK  116  A    between atoms: _272  and  _275
REMARK  117  A    between atoms: _275  and  _276
REMARK  118  A    between atoms: _279  and  _281
REMARK  119  A    between atoms: _281  and  _282
REMARK  120  A    between atoms: _281  and  _284
REMARK  121  A    between atoms: _284  and  _285
REMARK  122  A    between atoms: _285  and  _286
REMARK  123  A    between atoms: _286  and  _287
REMARK  124  A    between atoms: _287  and  _288
REMARK  125  A    between atoms: _292  and  _294
REMARK  126  A    between atoms: _294  and  _295
REMARK  127  A    between atoms: _294  and  _297
REMARK  128  A    between atoms: _297  and  _298
REMARK  129  A    between atoms: _298  and  _299
REMARK  130  A    between atoms: _302  and  _304
REMARK  131  A    between atoms: _304  and  _305
REMARK  132  A    between atoms: _304  and  _307
REMARK  133  A    between atoms: _307  and  _308
REMARK  134  A    between atoms: _314  and  _316
REMARK  135  A    between atoms: _316  and  _317
REMARK  136  A    between atoms: _316  and  _319
REMARK  137  A    between atoms: _322  and  _324
REMARK  138  A    between atoms: _324  and  _325
REMARK  139  A    between atoms: _324  and  _327
REMARK  140  A    between atoms: _327  and  _328
REMARK  141  A    between atoms: _328  and  _329
REMARK  142  A    between atoms: _329  and  _330
REMARK  143  A    between atoms: _339  and  _341
REMARK  144  A    between atoms: _341  and  _342
REMARK  145  A    between atoms: _341  and  _344
REMARK  146  A    between atoms: _344  and  _345
REMARK  147  A    between atoms: _348  and  _350
REMARK  148  A    between atoms: _350  and  _351
REMARK  149  A    between atoms: _350  and  _353
REMARK  150  A    between atoms: _353  and  _354
REMARK  151  A    between atoms: _357  and  _359
REMARK  152  A    between atoms: _359  and  _360
REMARK  153  A    between atoms: _363  and  _365
REMARK  154  A    between atoms: _365  and  _366
REMARK  155  A    between atoms: _368  and  _370
REMARK  156  A    between atoms: _370  and  _371
REMARK  157  A    between atoms: _370  and  _373
REMARK  158  A    between atoms: _376  and  _378
REMARK  159  A    between atoms: _378  and  _379
REMARK  160  A    between atoms: _378  and  _381
REMARK  161  A    between atoms: _381  and  _382
REMARK  162  A    between atoms: _387  and  _388
REMARK  163  A    between atoms: _390  and  _392
REMARK  164  A    between atoms: _392  and  _393
REMARK  165  A    between atoms: _392  and  _395
REMARK  166  A    between atoms: _395  and  _396
REMARK  167  A    between atoms: _399  and  _401
REMARK  168  A    between atoms: _401  and  _402
REMARK  169  A    between atoms: _401  and  _404
REMARK  170  A    between atoms: _404  and  _405
REMARK  171  A    between atoms: _408  and  _410
REMARK  172  A    between atoms: _410  and  _411
REMARK  173  A    between atoms: _410  and  _413
REMARK  174  A    between atoms: _413  and  _414
REMARK  175  A    between atoms: _414  and  _415
REMARK  176  A    between atoms: _418  and  _420
REMARK  177  A    between atoms: _420  and  _421
REMARK  178  A    between atoms: _420  and  _423
REMARK  179  A    between atoms: _423  and  _424
REMARK  180  A    between atoms: _426  and  _428
REMARK  181  A    between atoms: _428  and  _429
REMARK  182  A    between atoms: _428  and  _431
REMARK  183  A    between atoms: _431  and  _432
REMARK  184  A    between atoms: _435  and  _437
REMARK  185  A    between atoms: _437  and  _438
REMARK  186  A    between atoms: _437  and  _440
REMARK  187  A    between atoms: _440  and  _441
REMARK  188  A    between atoms: _441  and  _442
REMARK  189  A    between atoms: _444  and  _446
REMARK  190  A    between atoms: _446  and  _447
REMARK  191  A    between atoms: _446  and  _449
REMARK  192  A    between atoms: _449  and  _450
REMARK  193  A    between atoms: _455  and  _457
REMARK  194  A    between atoms: _457  and  _458
REMARK  195  A    between atoms: _457  and  _460
REMARK  196  A    between atoms: _460  and  _461
REMARK  197  A    between atoms: _461  and  _462
REMARK  198  A    between atoms: _465  and  _467
REMARK  199  A    between atoms: _467  and  _468
REMARK  200  A    between atoms: _467  and  _470
REMARK  201  A    between atoms: _470  and  _471
REMARK  202  A    between atoms: _476  and  _477
REMARK  203  A    between atoms: _479  and  _481
REMARK  204  A    between atoms: _481  and  _482
REMARK  205  A    between atoms: _481  and  _484
REMARK  206  A    between atoms: _484  and  _485
REMARK  207  A    between atoms: _488  and  _490
REMARK  208  A    between atoms: _490  and  _491
REMARK  209  A    between atoms: _490  and  _493
REMARK  210  A    between atoms: _493  and  _494
REMARK  211  A    between atoms: _494  and  _495
REMARK  212  A    between atoms: _495  and  _496
REMARK  213  A    between atoms: _496  and  _497
REMARK  214  A    between atoms: _501  and  _503
REMARK  215  A    between atoms: _503  and  _504
REMARK  216  A    between atoms: _506  and  _508
REMARK  217  A    between atoms: _508  and  _509
REMARK  218  A    between atoms: _508  and  _511
REMARK  219  A    between atoms: _511  and  _512
REMARK  220  A    between atoms: _517  and  _518
REMARK  221  A    between atoms: _520  and  _522
REMARK  222  A    between atoms: _522  and  _523
REMARK  223  A    between atoms: _525  and  _527
REMARK  224  A    between atoms: _527  and  _528
REMARK  225  A    between atoms: _527  and  _530
REMARK  226  A    between atoms: _530  and  _531
REMARK                            x       y       z     vdW  Elec       q    Type
REMARK                         _______ _______ _______ _____ _____    ______ ____
ROOT
ATOM      1  O   HOH     1      -5.032  22.933  50.546  0.00  0.00    +0.000 OA
ENDROOT
TORSDOF 0
REMARK  Name = ../refined-set-2016/3tza/3tza_pocket.pdb
REMARK  226 active torsions:
REMARK  status: ('A' for Active; 'I' for Inactive)
REMARK    1  A    between atoms: _1  and  _3
REMARK    2  A    between atoms: _3  and  _4
REMARK    3  A    between atoms: _3  and  _6
REMARK    4  A    between atoms: _6  and  _7
REMARK    5  A    between atoms: _10  and  _12
REMARK    6  A    between atoms: _12  and  _13
REMARK    7  A    between atoms: _12  and  _15
REMARK    8  A    between atoms: _15  and  _16
REMARK    9  A    between atoms: _16  and  _17
REMARK   10  A    between atoms: _20  and  _22
REMARK   11  A    between atoms: _22  and  _23
REMARK   12  A    between atoms: _22  and  _25
REMARK   13  A    between atoms: _25  and  _26
REMARK   14  A    between atoms: _29  and  _30
REMARK   15  A    between atoms: _35  and  _37
REMARK   16  A    between atoms: _37  and  _38
REMARK   17  A    between atoms: _37  and  _40
REMARK   18  A    between atoms: _40  and  _41
REMARK   19  A    between atoms: _46  and  _47
REMARK   20  A    between atoms: _49  and  _51
REMARK   21  A    between atoms: _51  and  _52
REMARK   22  A    between atoms: _51  and  _54
REMARK   23  A    between atoms: _54  and  _55
REMARK   24  A    between atoms: _55  and  _56
REMARK   25  A    between atoms: _56  and  _57
REMARK   26  A    between atoms: _57  and  _58
REMARK   27  A    between atoms: _62  and  _64
REMARK   28  A    between atoms: _64  and  _65
REMARK   29  A    between atoms: _64  and  _67
REMARK   30  A    between atoms: _67  and  _68
REMARK   31  A    between atoms: _73  and  _74
REMARK   32  A    between atoms: _76  and  _78
REMARK   33  A    between atoms: _78  and  _79
REMARK   34  A    between atoms: _81  and  _83
REMARK   35  A    between atoms: _83  and  _84
REMARK   36  A    between atoms: _87  and  _89
REMARK   37  A    between atoms: _89  and  _90
REMARK   38  A    between atoms: _89  and  _92
REMARK   39  A    between atoms: _92  and  _93
REMARK   40  A    between atoms: _93  and  _94
REMARK   41  A    between atoms: _96  and  _98
REMARK   42  A    between atoms: _98  and  _99
REMARK   43  A    between atoms: _98  and  _101
REMARK   44  A    between atoms: _104  and  _106
REMARK   45  A    between atoms: _106  and  _107
REMARK   46  A    between atoms: _111  and  _112
REMARK   47  A    between atoms: _117  and  _119
REMARK   48  A    between atoms: _119  and  _120
REMARK   49  A    between atoms: _119  and  _122
REMARK   50  A    between atoms: _122  and  _123
REMARK   51  A    between atoms: _126  and  _128
REMARK   52  A    between atoms: _128  and  _129
REMARK   53  A    between atoms: _128  and  _131
REMARK   54  A    between atoms: _131  and  _132
REMARK   55  A    between atoms: _135  and  _137
REMARK   56  A    between atoms: _137  and  _138
REMARK   57  A    between atoms: _137  and  _140
REMARK   58  A    between atoms: _140  and  _141
REMARK   59  A    between atoms: _144  and  _146
REMARK   60  A    between atoms: _146  and  _147
REMARK   61  A    between atoms: _146  and  _149
REMARK   62  A    between atoms: _149  and  _150
REMARK   63  A    between atoms: _153  and  _155
REMARK   64  A    between atoms: _155  and  _156
REMARK   65  A    between atoms: _155  and  _158
REMARK   66  A    between atoms: _158  and  _159
REMARK   67  A    between atoms: _159  and  _160
REMARK   68  A    between atoms: _160  and  _161
REMARK   69  A    between atoms: _170  and  _172
REMARK   70  A    between atoms: _172  and  _173
REMARK   71  A    between atoms: _172  and  _175
REMARK   72  A    between atoms: _175  and  _176
REMARK   73  A    between atoms: _182  and  _184
REMARK   74  A    between atoms: _184  and  _185
REMARK   75  A    between atoms: _184  and  _187
REMARK   76  A    between atoms: _187  and  _188
REMARK   77  A    between atoms: _191  and  _193
REMARK   78  A    between atoms: _193  and  _194
REMARK   79  A    between atoms: _196  and  _198
REMARK   80  A    between atoms: _198  and  _199
REMARK   81  A    between atoms: _198  and  _201
REMARK   82  A    between atoms: _201  and  _202
REMARK   83  A    between atoms: _205  and  _207
REMARK   84  A    between atoms: _207  and  _208
REMARK   85  A    between atoms: _207  and  _210
REMARK   86  A    between atoms: _210  and  _211
REMARK   87  A    between atoms: _213  and  _215
REMARK   88  A    between atoms: _215  and  _216
REMARK   89  A    between atoms: _215  and  _218
REMARK   90  A    between atoms: _218  and  _219
REMARK   91  A    between atoms: _219  and  _220
REMARK   92  A    between atoms: _222  and  _224
REMARK   93  A    between atoms: _224  and  _225
REMARK   94  A    between atoms: _224  and  _227
REMARK   95  A    between atoms: _227  and  _228
REMARK   96  A    between atoms: _231  and  _233
REMARK   97  A    between atoms: _233  and  _234
REMARK   98  A    between atoms: _233  and  _236
REMARK   99  A    between atoms: _236  and  _237
REMARK  100  A    between atoms: _240  and  _242
REMARK  101  A    between atoms: _242  and  _243
REMARK  102  A    between atoms: _242  and  _245
REMARK  103  A    between atoms: _245  and  _246
REMARK  104  A    between atoms: _249  and  _251
REMARK  105  A    between atoms: _251  and  _252
REMARK  106  A    between atoms: _251  and  _254
REMARK  107  A    between atoms: _254  and  _255
REMARK  108  A    between atoms: _257  and  _259
REMARK  109  A    between atoms: _259  and  _260
REMARK  110  A    between atoms: _262  and  _264
REMARK  111  A    between atoms: _264  and  _265
REMARK  112  A    between atoms: _264  and  _267
REMARK  113  A    between atoms: _267  and  _268
REMARK  114  A    between atoms: _270  and  _272
REMARK  115  A    between atoms: _272  and  _273
REMARK  116  A    between atoms: _272  and  _275
REMARK  117  A    between atoms: _275  and  _276
REMARK  118  A    between atoms: _279  and  _281
REMARK  119  A    between atoms: _281  and  _282
REMARK  120  A    between atoms: _281  and  _284
REMARK  121  A    between atoms: _284  and  _285
REMARK  122  A    between atoms: _285  and  _286
REMARK  123  A    between atoms: _286  and  _287
REMARK  124  A    between atoms: _287  and  _288
REMARK  125  A    between atoms: _292  and  _294
REMARK  126  A    between atoms: _294  and  _295
REMARK  127  A    between atoms: _294  and  _297
REMARK  128  A    between atoms: _297  and  _298
REMARK  129  A    between atoms: _298  and  _299
REMARK  130  A    between atoms: _302  and  _304
REMARK  131  A    between atoms: _304  and  _305
REMARK  132  A    between atoms: _304  and  _307
REMARK  133  A    between atoms: _307  and  _308
REMARK  134  A    between atoms: _314  and  _316
REMARK  135  A    between atoms: _316  and  _317
REMARK  136  A    between atoms: _316  and  _319
REMARK  137  A    between atoms: _322  and  _324
REMARK  138  A    between atoms: _324  and  _325
REMARK  139  A    between atoms: _324  and  _327
REMARK  140  A    between atoms: _327  and  _328
REMARK  141  A    between atoms: _328  and  _329
REMARK  142  A    between atoms: _329  and  _330
REMARK  143  A    between atoms: _339  and  _341
REMARK  144  A    between atoms: _341  and  _342
REMARK  145  A    between atoms: _341  and  _344
REMARK  146  A    between atoms: _344  and  _345
REMARK  147  A    between atoms: _348  and  _350
REMARK  148  A    between atoms: _350  and  _351
REMARK  149  A    between atoms: _350  and  _353
REMARK  150  A    between atoms: _353  and  _354
REMARK  151  A    between atoms: _357  and  _359
REMARK  152  A    between atoms: _359  and  _360
REMARK  153  A    between atoms: _363  and  _365
REMARK  154  A    between atoms: _365  and  _366
REMARK  155  A    between atoms: _368  and  _370
REMARK  156  A    between atoms: _370  and  _371
REMARK  157  A    between atoms: _370  and  _373
REMARK  158  A    between atoms: _376  and  _378
REMARK  159  A    between atoms: _378  and  _379
REMARK  160  A    between atoms: _378  and  _381
REMARK  161  A    between atoms: _381  and  _382
REMARK  162  A    between atoms: _387  and  _388
REMARK  163  A    between atoms: _390  and  _392
REMARK  164  A    between atoms: _392  and  _393
REMARK  165  A    between atoms: _392  and  _395
REMARK  166  A    between atoms: _395  and  _396
REMARK  167  A    between atoms: _399  and  _401
REMARK  168  A    between atoms: _401  and  _402
REMARK  169  A    between atoms: _401  and  _404
REMARK  170  A    between atoms: _404  and  _405
REMARK  171  A    between atoms: _408  and  _410
REMARK  172  A    between atoms: _410  and  _411
REMARK  173  A    between atoms: _410  and  _413
REMARK  174  A    between atoms: _413  and  _414
REMARK  175  A    between atoms: _414  and  _415
REMARK  176  A    between atoms: _418  and  _420
REMARK  177  A    between atoms: _420  and  _421
REMARK  178  A    between atoms: _420  and  _423
REMARK  179  A    between atoms: _423  and  _424
REMARK  180  A    between atoms: _426  and  _428
REMARK  181  A    between atoms: _428  and  _429
REMARK  182  A    between atoms: _428  and  _431
REMARK  183  A    between atoms: _431  and  _432
REMARK  184  A    between atoms: _435  and  _437
REMARK  185  A    between atoms: _437  and  _438
REMARK  186  A    between atoms: _437  and  _440
REMARK  187  A    between atoms: _440  and  _441
REMARK  188  A    between atoms: _441  and  _442
REMARK  189  A    between atoms: _444  and  _446
REMARK  190  A    between atoms: _446  and  _447
REMARK  191  A    between atoms: _446  and  _449
REMARK  192  A    between atoms: _449  and  _450
REMARK  193  A    between atoms: _455  and  _457
REMARK  194  A    between atoms: _457  and  _458
REMARK  195  A    between atoms: _457  and  _460
REMARK  196  A    between atoms: _460  and  _461
REMARK  197  A    between atoms: _461  and  _462
REMARK  198  A    between atoms: _465  and  _467
REMARK  199  A    between atoms: _467  and  _468
REMARK  200  A    between atoms: _467  and  _470
REMARK  201  A    between atoms: _470  and  _471
REMARK  202  A    between atoms: _476  and  _477
REMARK  203  A    between atoms: _479  and  _481
REMARK  204  A    between atoms: _481  and  _482
REMARK  205  A    between atoms: _481  and  _484
REMARK  206  A    between atoms: _484  and  _485
REMARK  207  A    between atoms: _488  and  _490
REMARK  208  A    between atoms: _490  and  _491
REMARK  209  A    between atoms: _490  and  _493
REMARK  210  A    between atoms: _493  and  _494
REMARK  211  A    between atoms: _494  and  _495
REMARK  212  A    between atoms: _495  and  _496
REMARK  213  A    between atoms: _496  and  _497
REMARK  214  A    between atoms: _501  and  _503
REMARK  215  A    between atoms: _503  and  _504
REMARK  216  A    between atoms: _506  and  _508
REMARK  217  A    between atoms: _508  and  _509
REMARK  218  A    between atoms: _508  and  _511
REMARK  219  A    between atoms: _511  and  _512
REMARK  220  A    between atoms: _517  and  _518
REMARK  221  A    between atoms: _520  and  _522
REMARK  222  A    between atoms: _522  and  _523
REMARK  223  A    between atoms: _525  and  _527
REMARK  224  A    between atoms: _527  and  _528
REMARK  225  A    between atoms: _527  and  _530
REMARK  226  A    between atoms: _530  and  _531
REMARK                            x       y       z     vdW  Elec       q    Type
REMARK                         _______ _______ _______ _____ _____    ______ ____
ROOT
ATOM      1  O   HOH     1      -8.095  34.165  51.362  0.00  0.00    +0.000 OA
ENDROOT
TORSDOF 0
REMARK  Name = ../refined-set-2016/3tza/3tza_pocket.pdb
REMARK  226 active torsions:
REMARK  status: ('A' for Active; 'I' for Inactive)
REMARK    1  A    between atoms: _1  and  _3
REMARK    2  A    between atoms: _3  and  _4
REMARK    3  A    between atoms: _3  and  _6
REMARK    4  A    between atoms: _6  and  _7
REMARK    5  A    between atoms: _10  and  _12
REMARK    6  A    between atoms: _12  and  _13
REMARK    7  A    between atoms: _12  and  _15
REMARK    8  A    between atoms: _15  and  _16
REMARK    9  A    between atoms: _16  and  _17
REMARK   10  A    between atoms: _20  and  _22
REMARK   11  A    between atoms: _22  and  _23
REMARK   12  A    between atoms: _22  and  _25
REMARK   13  A    between atoms: _25  and  _26
REMARK   14  A    between atoms: _29  and  _30
REMARK   15  A    between atoms: _35  and  _37
REMARK   16  A    between atoms: _37  and  _38
REMARK   17  A    between atoms: _37  and  _40
REMARK   18  A    between atoms: _40  and  _41
REMARK   19  A    between atoms: _46  and  _47
REMARK   20  A    between atoms: _49  and  _51
REMARK   21  A    between atoms: _51  and  _52
REMARK   22  A    between atoms: _51  and  _54
REMARK   23  A    between atoms: _54  and  _55
REMARK   24  A    between atoms: _55  and  _56
REMARK   25  A    between atoms: _56  and  _57
REMARK   26  A    between atoms: _57  and  _58
REMARK   27  A    between atoms: _62  and  _64
REMARK   28  A    between atoms: _64  and  _65
REMARK   29  A    between atoms: _64  and  _67
REMARK   30  A    between atoms: _67  and  _68
REMARK   31  A    between atoms: _73  and  _74
REMARK   32  A    between atoms: _76  and  _78
REMARK   33  A    between atoms: _78  and  _79
REMARK   34  A    between atoms: _81  and  _83
REMARK   35  A    between atoms: _83  and  _84
REMARK   36  A    between atoms: _87  and  _89
REMARK   37  A    between atoms: _89  and  _90
REMARK   38  A    between atoms: _89  and  _92
REMARK   39  A    between atoms: _92  and  _93
REMARK   40  A    between atoms: _93  and  _94
REMARK   41  A    between atoms: _96  and  _98
REMARK   42  A    between atoms: _98  and  _99
REMARK   43  A    between atoms: _98  and  _101
REMARK   44  A    between atoms: _104  and  _106
REMARK   45  A    between atoms: _106  and  _107
REMARK   46  A    between atoms: _111  and  _112
REMARK   47  A    between atoms: _117  and  _119
REMARK   48  A    between atoms: _119  and  _120
REMARK   49  A    between atoms: _119  and  _122
REMARK   50  A    between atoms: _122  and  _123
REMARK   51  A    between atoms: _126  and  _128
REMARK   52  A    between atoms: _128  and  _129
REMARK   53  A    between atoms: _128  and  _131
REMARK   54  A    between atoms: _131  and  _132
REMARK   55  A    between atoms: _135  and  _137
REMARK   56  A    between atoms: _137  and  _138
REMARK   57  A    between atoms: _137  and  _140
REMARK   58  A    between atoms: _140  and  _141
REMARK   59  A    between atoms: _144  and  _146
REMARK   60  A    between atoms: _146  and  _147
REMARK   61  A    between atoms: _146  and  _149
REMARK   62  A    between atoms: _149  and  _150
REMARK   63  A    between atoms: _153  and  _155
REMARK   64  A    between atoms: _155  and  _156
REMARK   65  A    between atoms: _155  and  _158
REMARK   66  A    between atoms: _158  and  _159
REMARK   67  A    between atoms: _159  and  _160
REMARK   68  A    between atoms: _160  and  _161
REMARK   69  A    between atoms: _170  and  _172
REMARK   70  A    between atoms: _172  and  _173
REMARK   71  A    between atoms: _172  and  _175
REMARK   72  A    between atoms: _175  and  _176
REMARK   73  A    between atoms: _182  and  _184
REMARK   74  A    between atoms: _184  and  _185
REMARK   75  A    between atoms: _184  and  _187
REMARK   76  A    between atoms: _187  and  _188
REMARK   77  A    between atoms: _191  and  _193
REMARK   78  A    between atoms: _193  and  _194
REMARK   79  A    between atoms: _196  and  _198
REMARK   80  A    between atoms: _198  and  _199
REMARK   81  A    between atoms: _198  and  _201
REMARK   82  A    between atoms: _201  and  _202
REMARK   83  A    between atoms: _205  and  _207
REMARK   84  A    between atoms: _207  and  _208
REMARK   85  A    between atoms: _207  and  _210
REMARK   86  A    between atoms: _210  and  _211
REMARK   87  A    between atoms: _213  and  _215
REMARK   88  A    between atoms: _215  and  _216
REMARK   89  A    between atoms: _215  and  _218
REMARK   90  A    between atoms: _218  and  _219
REMARK   91  A    between atoms: _219  and  _220
REMARK   92  A    between atoms: _222  and  _224
REMARK   93  A    between atoms: _224  and  _225
REMARK   94  A    between atoms: _224  and  _227
REMARK   95  A    between atoms: _227  and  _228
REMARK   96  A    between atoms: _231  and  _233
REMARK   97  A    between atoms: _233  and  _234
REMARK   98  A    between atoms: _233  and  _236
REMARK   99  A    between atoms: _236  and  _237
REMARK  100  A    between atoms: _240  and  _242
REMARK  101  A    between atoms: _242  and  _243
REMARK  102  A    between atoms: _242  and  _245
REMARK  103  A    between atoms: _245  and  _246
REMARK  104  A    between atoms: _249  and  _251
REMARK  105  A    between atoms: _251  and  _252
REMARK  106  A    between atoms: _251  and  _254
REMARK  107  A    between atoms: _254  and  _255
REMARK  108  A    between atoms: _257  and  _259
REMARK  109  A    between atoms: _259  and  _260
REMARK  110  A    between atoms: _262  and  _264
REMARK  111  A    between atoms: _264  and  _265
REMARK  112  A    between atoms: _264  and  _267
REMARK  113  A    between atoms: _267  and  _268
REMARK  114  A    between atoms: _270  and  _272
REMARK  115  A    between atoms: _272  and  _273
REMARK  116  A    between atoms: _272  and  _275
REMARK  117  A    between atoms: _275  and  _276
REMARK  118  A    between atoms: _279  and  _281
REMARK  119  A    between atoms: _281  and  _282
REMARK  120  A    between atoms: _281  and  _284
REMARK  121  A    between atoms: _284  and  _285
REMARK  122  A    between atoms: _285  and  _286
REMARK  123  A    between atoms: _286  and  _287
REMARK  124  A    between atoms: _287  and  _288
REMARK  125  A    between atoms: _292  and  _294
REMARK  126  A    between atoms: _294  and  _295
REMARK  127  A    between atoms: _294  and  _297
REMARK  128  A    between atoms: _297  and  _298
REMARK  129  A    between atoms: _298  and  _299
REMARK  130  A    between atoms: _302  and  _304
REMARK  131  A    between atoms: _304  and  _305
REMARK  132  A    between atoms: _304  and  _307
REMARK  133  A    between atoms: _307  and  _308
REMARK  134  A    between atoms: _314  and  _316
REMARK  135  A    between atoms: _316  and  _317
REMARK  136  A    between atoms: _316  and  _319
REMARK  137  A    between atoms: _322  and  _324
REMARK  138  A    between atoms: _324  and  _325
REMARK  139  A    between atoms: _324  and  _327
REMARK  140  A    between atoms: _327  and  _328
REMARK  141  A    between atoms: _328  and  _329
REMARK  142  A    between atoms: _329  and  _330
REMARK  143  A    between atoms: _339  and  _341
REMARK  144  A    between atoms: _341  and  _342
REMARK  145  A    between atoms: _341  and  _344
REMARK  146  A    between atoms: _344  and  _345
REMARK  147  A    between atoms: _348  and  _350
REMARK  148  A    between atoms: _350  and  _351
REMARK  149  A    between atoms: _350  and  _353
REMARK  150  A    between atoms: _353  and  _354
REMARK  151  A    between atoms: _357  and  _359
REMARK  152  A    between atoms: _359  and  _360
REMARK  153  A    between atoms: _363  and  _365
REMARK  154  A    between atoms: _365  and  _366
REMARK  155  A    between atoms: _368  and  _370
REMARK  156  A    between atoms: _370  and  _371
REMARK  157  A    between atoms: _370  and  _373
REMARK  158  A    between atoms: _376  and  _378
REMARK  159  A    between atoms: _378  and  _379
REMARK  160  A    between atoms: _378  and  _381
REMARK  161  A    between atoms: _381  and  _382
REMARK  162  A    between atoms: _387  and  _388
REMARK  163  A    between atoms: _390  and  _392
REMARK  164  A    between atoms: _392  and  _393
REMARK  165  A    between atoms: _392  and  _395
REMARK  166  A    between atoms: _395  and  _396
REMARK  167  A    between atoms: _399  and  _401
REMARK  168  A    between atoms: _401  and  _402
REMARK  169  A    between atoms: _401  and  _404
REMARK  170  A    between atoms: _404  and  _405
REMARK  171  A    between atoms: _408  and  _410
REMARK  172  A    between atoms: _410  and  _411
REMARK  173  A    between atoms: _410  and  _413
REMARK  174  A    between atoms: _413  and  _414
REMARK  175  A    between atoms: _414  and  _415
REMARK  176  A    between atoms: _418  and  _420
REMARK  177  A    between atoms: _420  and  _421
REMARK  178  A    between atoms: _420  and  _423
REMARK  179  A    between atoms: _423  and  _424
REMARK  180  A    between atoms: _426  and  _428
REMARK  181  A    between atoms: _428  and  _429
REMARK  182  A    between atoms: _428  and  _431
REMARK  183  A    between atoms: _431  and  _432
REMARK  184  A    between atoms: _435  and  _437
REMARK  185  A    between atoms: _437  and  _438
REMARK  186  A    between atoms: _437  and  _440
REMARK  187  A    between atoms: _440  and  _441
REMARK  188  A    between atoms: _441  and  _442
REMARK  189  A    between atoms: _444  and  _446
REMARK  190  A    between atoms: _446  and  _447
REMARK  191  A    between atoms: _446  and  _449
REMARK  192  A    between atoms: _449  and  _450
REMARK  193  A    between atoms: _455  and  _457
REMARK  194  A    between atoms: _457  and  _458
REMARK  195  A    between atoms: _457  and  _460
REMARK  196  A    between atoms: _460  and  _461
REMARK  197  A    between atoms: _461  and  _462
REMARK  198  A    between atoms: _465  and  _467
REMARK  199  A    between atoms: _467  and  _468
REMARK  200  A    between atoms: _467  and  _470
REMARK  201  A    between atoms: _470  and  _471
REMARK  202  A    between atoms: _476  and  _477
REMARK  203  A    between atoms: _479  and  _481
REMARK  204  A    between atoms: _481  and  _482
REMARK  205  A    between atoms: _481  and  _484
REMARK  206  A    between atoms: _484  and  _485
REMARK  207  A    between atoms: _488  and  _490
REMARK  208  A    between atoms: _490  and  _491
REMARK  209  A    between atoms: _490  and  _493
REMARK  210  A    between atoms: _493  and  _494
REMARK  211  A    between atoms: _494  and  _495
REMARK  212  A    between atoms: _495  and  _496
REMARK  213  A    between atoms: _496  and  _497
REMARK  214  A    between atoms: _501  and  _503
REMARK  215  A    between atoms: _503  and  _504
REMARK  216  A    between atoms: _506  and  _508
REMARK  217  A    between atoms: _508  and  _509
REMARK  218  A    between atoms: _508  and  _511
REMARK  219  A    between atoms: _511  and  _512
REMARK  220  A    between atoms: _517  and  _518
REMARK  221  A    between atoms: _520  and  _522
REMARK  222  A    between atoms: _522  and  _523
REMARK  223  A    between atoms: _525  and  _527
REMARK  224  A    between atoms: _527  and  _528
REMARK  225  A    between atoms: _527  and  _530
REMARK  226  A    between atoms: _530  and  _531
REMARK                            x       y       z     vdW  Elec       q    Type
REMARK                         _______ _______ _______ _____ _____    ______ ____
ROOT
ATOM      1  O   HOH     1      -8.866  24.021  51.064  0.00  0.00    +0.000 OA
ENDROOT
TORSDOF 0
REMARK  Name = ../refined-set-2016/3tza/3tza_pocket.pdb
REMARK  226 active torsions:
REMARK  status: ('A' for Active; 'I' for Inactive)
REMARK    1  A    between atoms: _1  and  _3
REMARK    2  A    between atoms: _3  and  _4
REMARK    3  A    between atoms: _3  and  _6
REMARK    4  A    between atoms: _6  and  _7
REMARK    5  A    between atoms: _10  and  _12
REMARK    6  A    between atoms: _12  and  _13
REMARK    7  A    between atoms: _12  and  _15
REMARK    8  A    between atoms: _15  and  _16
REMARK    9  A    between atoms: _16  and  _17
REMARK   10  A    between atoms: _20  and  _22
REMARK   11  A    between atoms: _22  and  _23
REMARK   12  A    between atoms: _22  and  _25
REMARK   13  A    between atoms: _25  and  _26
REMARK   14  A    between atoms: _29  and  _30
REMARK   15  A    between atoms: _35  and  _37
REMARK   16  A    between atoms: _37  and  _38
REMARK   17  A    between atoms: _37  and  _40
REMARK   18  A    between atoms: _40  and  _41
REMARK   19  A    between atoms: _46  and  _47
REMARK   20  A    between atoms: _49  and  _51
REMARK   21  A    between atoms: _51  and  _52
REMARK   22  A    between atoms: _51  and  _54
REMARK   23  A    between atoms: _54  and  _55
REMARK   24  A    between atoms: _55  and  _56
REMARK   25  A    between atoms: _56  and  _57
REMARK   26  A    between atoms: _57  and  _58
REMARK   27  A    between atoms: _62  and  _64
REMARK   28  A    between atoms: _64  and  _65
REMARK   29  A    between atoms: _64  and  _67
REMARK   30  A    between atoms: _67  and  _68
REMARK   31  A    between atoms: _73  and  _74
REMARK   32  A    between atoms: _76  and  _78
REMARK   33  A    between atoms: _78  and  _79
REMARK   34  A    between atoms: _81  and  _83
REMARK   35  A    between atoms: _83  and  _84
REMARK   36  A    between atoms: _87  and  _89
REMARK   37  A    between atoms: _89  and  _90
REMARK   38  A    between atoms: _89  and  _92
REMARK   39  A    between atoms: _92  and  _93
REMARK   40  A    between atoms: _93  and  _94
REMARK   41  A    between atoms: _96  and  _98
REMARK   42  A    between atoms: _98  and  _99
REMARK   43  A    between atoms: _98  and  _101
REMARK   44  A    between atoms: _104  and  _106
REMARK   45  A    between atoms: _106  and  _107
REMARK   46  A    between atoms: _111  and  _112
REMARK   47  A    between atoms: _117  and  _119
REMARK   48  A    between atoms: _119  and  _120
REMARK   49  A    between atoms: _119  and  _122
REMARK   50  A    between atoms: _122  and  _123
REMARK   51  A    between atoms: _126  and  _128
REMARK   52  A    between atoms: _128  and  _129
REMARK   53  A    between atoms: _128  and  _131
REMARK   54  A    between atoms: _131  and  _132
REMARK   55  A    between atoms: _135  and  _137
REMARK   56  A    between atoms: _137  and  _138
REMARK   57  A    between atoms: _137  and  _140
REMARK   58  A    between atoms: _140  and  _141
REMARK   59  A    between atoms: _144  and  _146
REMARK   60  A    between atoms: _146  and  _147
REMARK   61  A    between atoms: _146  and  _149
REMARK   62  A    between atoms: _149  and  _150
REMARK   63  A    between atoms: _153  and  _155
REMARK   64  A    between atoms: _155  and  _156
REMARK   65  A    between atoms: _155  and  _158
REMARK   66  A    between atoms: _158  and  _159
REMARK   67  A    between atoms: _159  and  _160
REMARK   68  A    between atoms: _160  and  _161
REMARK   69  A    between atoms: _170  and  _172
REMARK   70  A    between atoms: _172  and  _173
REMARK   71  A    between atoms: _172  and  _175
REMARK   72  A    between atoms: _175  and  _176
REMARK   73  A    between atoms: _182  and  _184
REMARK   74  A    between atoms: _184  and  _185
REMARK   75  A    between atoms: _184  and  _187
REMARK   76  A    between atoms: _187  and  _188
REMARK   77  A    between atoms: _191  and  _193
REMARK   78  A    between atoms: _193  and  _194
REMARK   79  A    between atoms: _196  and  _198
REMARK   80  A    between atoms: _198  and  _199
REMARK   81  A    between atoms: _198  and  _201
REMARK   82  A    between atoms: _201  and  _202
REMARK   83  A    between atoms: _205  and  _207
REMARK   84  A    between atoms: _207  and  _208
REMARK   85  A    between atoms: _207  and  _210
REMARK   86  A    between atoms: _210  and  _211
REMARK   87  A    between atoms: _213  and  _215
REMARK   88  A    between atoms: _215  and  _216
REMARK   89  A    between atoms: _215  and  _218
REMARK   90  A    between atoms: _218  and  _219
REMARK   91  A    between atoms: _219  and  _220
REMARK   92  A    between atoms: _222  and  _224
REMARK   93  A    between atoms: _224  and  _225
REMARK   94  A    between atoms: _224  and  _227
REMARK   95  A    between atoms: _227  and  _228
REMARK   96  A    between atoms: _231  and  _233
REMARK   97  A    between atoms: _233  and  _234
REMARK   98  A    between atoms: _233  and  _236
REMARK   99  A    between atoms: _236  and  _237
REMARK  100  A    between atoms: _240  and  _242
REMARK  101  A    between atoms: _242  and  _243
REMARK  102  A    between atoms: _242  and  _245
REMARK  103  A    between atoms: _245  and  _246
REMARK  104  A    between atoms: _249  and  _251
REMARK  105  A    between atoms: _251  and  _252
REMARK  106  A    between atoms: _251  and  _254
REMARK  107  A    between atoms: _254  and  _255
REMARK  108  A    between atoms: _257  and  _259
REMARK  109  A    between atoms: _259  and  _260
REMARK  110  A    between atoms: _262  and  _264
REMARK  111  A    between atoms: _264  and  _265
REMARK  112  A    between atoms: _264  and  _267
REMARK  113  A    between atoms: _267  and  _268
REMARK  114  A    between atoms: _270  and  _272
REMARK  115  A    between atoms: _272  and  _273
REMARK  116  A    between atoms: _272  and  _275
REMARK  117  A    between atoms: _275  and  _276
REMARK  118  A    between atoms: _279  and  _281
REMARK  119  A    between atoms: _281  and  _282
REMARK  120  A    between atoms: _281  and  _284
REMARK  121  A    between atoms: _284  and  _285
REMARK  122  A    between atoms: _285  and  _286
REMARK  123  A    between atoms: _286  and  _287
REMARK  124  A    between atoms: _287  and  _288
REMARK  125  A    between atoms: _292  and  _294
REMARK  126  A    between atoms: _294  and  _295
REMARK  127  A    between atoms: _294  and  _297
REMARK  128  A    between atoms: _297  and  _298
REMARK  129  A    between atoms: _298  and  _299
REMARK  130  A    between atoms: _302  and  _304
REMARK  131  A    between atoms: _304  and  _305
REMARK  132  A    between atoms: _304  and  _307
REMARK  133  A    between atoms: _307  and  _308
REMARK  134  A    between atoms: _314  and  _316
REMARK  135  A    between atoms: _316  and  _317
REMARK  136  A    between atoms: _316  and  _319
REMARK  137  A    between atoms: _322  and  _324
REMARK  138  A    between atoms: _324  and  _325
REMARK  139  A    between atoms: _324  and  _327
REMARK  140  A    between atoms: _327  and  _328
REMARK  141  A    between atoms: _328  and  _329
REMARK  142  A    between atoms: _329  and  _330
REMARK  143  A    between atoms: _339  and  _341
REMARK  144  A    between atoms: _341  and  _342
REMARK  145  A    between atoms: _341  and  _344
REMARK  146  A    between atoms: _344  and  _345
REMARK  147  A    between atoms: _348  and  _350
REMARK  148  A    between atoms: _350  and  _351
REMARK  149  A    between atoms: _350  and  _353
REMARK  150  A    between atoms: _353  and  _354
REMARK  151  A    between atoms: _357  and  _359
REMARK  152  A    between atoms: _359  and  _360
REMARK  153  A    between atoms: _363  and  _365
REMARK  154  A    between atoms: _365  and  _366
REMARK  155  A    between atoms: _368  and  _370
REMARK  156  A    between atoms: _370  and  _371
REMARK  157  A    between atoms: _370  and  _373
REMARK  158  A    between atoms: _376  and  _378
REMARK  159  A    between atoms: _378  and  _379
REMARK  160  A    between atoms: _378  and  _381
REMARK  161  A    between atoms: _381  and  _382
REMARK  162  A    between atoms: _387  and  _388
REMARK  163  A    between atoms: _390  and  _392
REMARK  164  A    between atoms: _392  and  _393
REMARK  165  A    between atoms: _392  and  _395
REMARK  166  A    between atoms: _395  and  _396
REMARK  167  A    between atoms: _399  and  _401
REMARK  168  A    between atoms: _401  and  _402
REMARK  169  A    between atoms: _401  and  _404
REMARK  170  A    between atoms: _404  and  _405
REMARK  171  A    between atoms: _408  and  _410
REMARK  172  A    between atoms: _410  and  _411
REMARK  173  A    between atoms: _410  and  _413
REMARK  174  A    between atoms: _413  and  _414
REMARK  175  A    between atoms: _414  and  _415
REMARK  176  A    between atoms: _418  and  _420
REMARK  177  A    between atoms: _420  and  _421
REMARK  178  A    between atoms: _420  and  _423
REMARK  179  A    between atoms: _423  and  _424
REMARK  180  A    between atoms: _426  and  _428
REMARK  181  A    between atoms: _428  and  _429
REMARK  182  A    between atoms: _428  and  _431
REMARK  183  A    between atoms: _431  and  _432
REMARK  184  A    between atoms: _435  and  _437
REMARK  185  A    between atoms: _437  and  _438
REMARK  186  A    between atoms: _437  and  _440
REMARK  187  A    between atoms: _440  and  _441
REMARK  188  A    between atoms: _441  and  _442
REMARK  189  A    between atoms: _444  and  _446
REMARK  190  A    between atoms: _446  and  _447
REMARK  191  A    between atoms: _446  and  _449
REMARK  192  A    between atoms: _449  and  _450
REMARK  193  A    between atoms: _455  and  _457
REMARK  194  A    between atoms: _457  and  _458
REMARK  195  A    between atoms: _457  and  _460
REMARK  196  A    between atoms: _460  and  _461
REMARK  197  A    between atoms: _461  and  _462
REMARK  198  A    between atoms: _465  and  _467
REMARK  199  A    between atoms: _467  and  _468
REMARK  200  A    between atoms: _467  and  _470
REMARK  201  A    between atoms: _470  and  _471
REMARK  202  A    between atoms: _476  and  _477
REMARK  203  A    between atoms: _479  and  _481
REMARK  204  A    between atoms: _481  and  _482
REMARK  205  A    between atoms: _481  and  _484
REMARK  206  A    between atoms: _484  and  _485
REMARK  207  A    between atoms: _488  and  _490
REMARK  208  A    between atoms: _490  and  _491
REMARK  209  A    between atoms: _490  and  _493
REMARK  210  A    between atoms: _493  and  _494
REMARK  211  A    between atoms: _494  and  _495
REMARK  212  A    between atoms: _495  and  _496
REMARK  213  A    between atoms: _496  and  _497
REMARK  214  A    between atoms: _501  and  _503
REMARK  215  A    between atoms: _503  and  _504
REMARK  216  A    between atoms: _506  and  _508
REMARK  217  A    between atoms: _508  and  _509
REMARK  218  A    between atoms: _508  and  _511
REMARK  219  A    between atoms: _511  and  _512
REMARK  220  A    between atoms: _517  and  _518
REMARK  221  A    between atoms: _520  and  _522
REMARK  222  A    between atoms: _522  and  _523
REMARK  223  A    between atoms: _525  and  _527
REMARK  224  A    between atoms: _527  and  _528
REMARK  225  A    between atoms: _527  and  _530
REMARK  226  A    between atoms: _530  and  _531
REMARK                            x       y       z     vdW  Elec       q    Type
REMARK                         _______ _______ _______ _____ _____    ______ ____
ROOT
ATOM      1  O   HOH     1      -0.102  20.812  56.690  0.00  0.00    +0.000 OA
ENDROOT
TORSDOF 0
REMARK  Name = ../refined-set-2016/3tza/3tza_pocket.pdb
REMARK  226 active torsions:
REMARK  status: ('A' for Active; 'I' for Inactive)
REMARK    1  A    between atoms: _1  and  _3
REMARK    2  A    between atoms: _3  and  _4
REMARK    3  A    between atoms: _3  and  _6
REMARK    4  A    between atoms: _6  and  _7
REMARK    5  A    between atoms: _10  and  _12
REMARK    6  A    between atoms: _12  and  _13
REMARK    7  A    between atoms: _12  and  _15
REMARK    8  A    between atoms: _15  and  _16
REMARK    9  A    between atoms: _16  and  _17
REMARK   10  A    between atoms: _20  and  _22
REMARK   11  A    between atoms: _22  and  _23
REMARK   12  A    between atoms: _22  and  _25
REMARK   13  A    between atoms: _25  and  _26
REMARK   14  A    between atoms: _29  and  _30
REMARK   15  A    between atoms: _35  and  _37
REMARK   16  A    between atoms: _37  and  _38
REMARK   17  A    between atoms: _37  and  _40
REMARK   18  A    between atoms: _40  and  _41
REMARK   19  A    between atoms: _46  and  _47
REMARK   20  A    between atoms: _49  and  _51
REMARK   21  A    between atoms: _51  and  _52
REMARK   22  A    between atoms: _51  and  _54
REMARK   23  A    between atoms: _54  and  _55
REMARK   24  A    between atoms: _55  and  _56
REMARK   25  A    between atoms: _56  and  _57
REMARK   26  A    between atoms: _57  and  _58
REMARK   27  A    between atoms: _62  and  _64
REMARK   28  A    between atoms: _64  and  _65
REMARK   29  A    between atoms: _64  and  _67
REMARK   30  A    between atoms: _67  and  _68
REMARK   31  A    between atoms: _73  and  _74
REMARK   32  A    between atoms: _76  and  _78
REMARK   33  A    between atoms: _78  and  _79
REMARK   34  A    between atoms: _81  and  _83
REMARK   35  A    between atoms: _83  and  _84
REMARK   36  A    between atoms: _87  and  _89
REMARK   37  A    between atoms: _89  and  _90
REMARK   38  A    between atoms: _89  and  _92
REMARK   39  A    between atoms: _92  and  _93
REMARK   40  A    between atoms: _93  and  _94
REMARK   41  A    between atoms: _96  and  _98
REMARK   42  A    between atoms: _98  and  _99
REMARK   43  A    between atoms: _98  and  _101
REMARK   44  A    between atoms: _104  and  _106
REMARK   45  A    between atoms: _106  and  _107
REMARK   46  A    between atoms: _111  and  _112
REMARK   47  A    between atoms: _117  and  _119
REMARK   48  A    between atoms: _119  and  _120
REMARK   49  A    between atoms: _119  and  _122
REMARK   50  A    between atoms: _122  and  _123
REMARK   51  A    between atoms: _126  and  _128
REMARK   52  A    between atoms: _128  and  _129
REMARK   53  A    between atoms: _128  and  _131
REMARK   54  A    between atoms: _131  and  _132
REMARK   55  A    between atoms: _135  and  _137
REMARK   56  A    between atoms: _137  and  _138
REMARK   57  A    between atoms: _137  and  _140
REMARK   58  A    between atoms: _140  and  _141
REMARK   59  A    between atoms: _144  and  _146
REMARK   60  A    between atoms: _146  and  _147
REMARK   61  A    between atoms: _146  and  _149
REMARK   62  A    between atoms: _149  and  _150
REMARK   63  A    between atoms: _153  and  _155
REMARK   64  A    between atoms: _155  and  _156
REMARK   65  A    between atoms: _155  and  _158
REMARK   66  A    between atoms: _158  and  _159
REMARK   67  A    between atoms: _159  and  _160
REMARK   68  A    between atoms: _160  and  _161
REMARK   69  A    between atoms: _170  and  _172
REMARK   70  A    between atoms: _172  and  _173
REMARK   71  A    between atoms: _172  and  _175
REMARK   72  A    between atoms: _175  and  _176
REMARK   73  A    between atoms: _182  and  _184
REMARK   74  A    between atoms: _184  and  _185
REMARK   75  A    between atoms: _184  and  _187
REMARK   76  A    between atoms: _187  and  _188
REMARK   77  A    between atoms: _191  and  _193
REMARK   78  A    between atoms: _193  and  _194
REMARK   79  A    between atoms: _196  and  _198
REMARK   80  A    between atoms: _198  and  _199
REMARK   81  A    between atoms: _198  and  _201
REMARK   82  A    between atoms: _201  and  _202
REMARK   83  A    between atoms: _205  and  _207
REMARK   84  A    between atoms: _207  and  _208
REMARK   85  A    between atoms: _207  and  _210
REMARK   86  A    between atoms: _210  and  _211
REMARK   87  A    between atoms: _213  and  _215
REMARK   88  A    between atoms: _215  and  _216
REMARK   89  A    between atoms: _215  and  _218
REMARK   90  A    between atoms: _218  and  _219
REMARK   91  A    between atoms: _219  and  _220
REMARK   92  A    between atoms: _222  and  _224
REMARK   93  A    between atoms: _224  and  _225
REMARK   94  A    between atoms: _224  and  _227
REMARK   95  A    between atoms: _227  and  _228
REMARK   96  A    between atoms: _231  and  _233
REMARK   97  A    between atoms: _233  and  _234
REMARK   98  A    between atoms: _233  and  _236
REMARK   99  A    between atoms: _236  and  _237
REMARK  100  A    between atoms: _240  and  _242
REMARK  101  A    between atoms: _242  and  _243
REMARK  102  A    between atoms: _242  and  _245
REMARK  103  A    between atoms: _245  and  _246
REMARK  104  A    between atoms: _249  and  _251
REMARK  105  A    between atoms: _251  and  _252
REMARK  106  A    between atoms: _251  and  _254
REMARK  107  A    between atoms: _254  and  _255
REMARK  108  A    between atoms: _257  and  _259
REMARK  109  A    between atoms: _259  and  _260
REMARK  110  A    between atoms: _262  and  _264
REMARK  111  A    between atoms: _264  and  _265
REMARK  112  A    between atoms: _264  and  _267
REMARK  113  A    between atoms: _267  and  _268
REMARK  114  A    between atoms: _270  and  _272
REMARK  115  A    between atoms: _272  and  _273
REMARK  116  A    between atoms: _272  and  _275
REMARK  117  A    between atoms: _275  and  _276
REMARK  118  A    between atoms: _279  and  _281
REMARK  119  A    between atoms: _281  and  _282
REMARK  120  A    between atoms: _281  and  _284
REMARK  121  A    between atoms: _284  and  _285
REMARK  122  A    between atoms: _285  and  _286
REMARK  123  A    between atoms: _286  and  _287
REMARK  124  A    between atoms: _287  and  _288
REMARK  125  A    between atoms: _292  and  _294
REMARK  126  A    between atoms: _294  and  _295
REMARK  127  A    between atoms: _294  and  _297
REMARK  128  A    between atoms: _297  and  _298
REMARK  129  A    between atoms: _298  and  _299
REMARK  130  A    between atoms: _302  and  _304
REMARK  131  A    between atoms: _304  and  _305
REMARK  132  A    between atoms: _304  and  _307
REMARK  133  A    between atoms: _307  and  _308
REMARK  134  A    between atoms: _314  and  _316
REMARK  135  A    between atoms: _316  and  _317
REMARK  136  A    between atoms: _316  and  _319
REMARK  137  A    between atoms: _322  and  _324
REMARK  138  A    between atoms: _324  and  _325
REMARK  139  A    between atoms: _324  and  _327
REMARK  140  A    between atoms: _327  and  _328
REMARK  141  A    between atoms: _328  and  _329
REMARK  142  A    between atoms: _329  and  _330
REMARK  143  A    between atoms: _339  and  _341
REMARK  144  A    between atoms: _341  and  _342
REMARK  145  A    between atoms: _341  and  _344
REMARK  146  A    between atoms: _344  and  _345
REMARK  147  A    between atoms: _348  and  _350
REMARK  148  A    between atoms: _350  and  _351
REMARK  149  A    between atoms: _350  and  _353
REMARK  150  A    between atoms: _353  and  _354
REMARK  151  A    between atoms: _357  and  _359
REMARK  152  A    between atoms: _359  and  _360
REMARK  153  A    between atoms: _363  and  _365
REMARK  154  A    between atoms: _365  and  _366
REMARK  155  A    between atoms: _368  and  _370
REMARK  156  A    between atoms: _370  and  _371
REMARK  157  A    between atoms: _370  and  _373
REMARK  158  A    between atoms: _376  and  _378
REMARK  159  A    between atoms: _378  and  _379
REMARK  160  A    between atoms: _378  and  _381
REMARK  161  A    between atoms: _381  and  _382
REMARK  162  A    between atoms: _387  and  _388
REMARK  163  A    between atoms: _390  and  _392
REMARK  164  A    between atoms: _392  and  _393
REMARK  165  A    between atoms: _392  and  _395
REMARK  166  A    between atoms: _395  and  _396
REMARK  167  A    between atoms: _399  and  _401
REMARK  168  A    between atoms: _401  and  _402
REMARK  169  A    between atoms: _401  and  _404
REMARK  170  A    between atoms: _404  and  _405
REMARK  171  A    between atoms: _408  and  _410
REMARK  172  A    between atoms: _410  and  _411
REMARK  173  A    between atoms: _410  and  _413
REMARK  174  A    between atoms: _413  and  _414
REMARK  175  A    between atoms: _414  and  _415
REMARK  176  A    between atoms: _418  and  _420
REMARK  177  A    between atoms: _420  and  _421
REMARK  178  A    between atoms: _420  and  _423
REMARK  179  A    between atoms: _423  and  _424
REMARK  180  A    between atoms: _426  and  _428
REMARK  181  A    between atoms: _428  and  _429
REMARK  182  A    between atoms: _428  and  _431
REMARK  183  A    between atoms: _431  and  _432
REMARK  184  A    between atoms: _435  and  _437
REMARK  185  A    between atoms: _437  and  _438
REMARK  186  A    between atoms: _437  and  _440
REMARK  187  A    between atoms: _440  and  _441
REMARK  188  A    between atoms: _441  and  _442
REMARK  189  A    between atoms: _444  and  _446
REMARK  190  A    between atoms: _446  and  _447
REMARK  191  A    between atoms: _446  and  _449
REMARK  192  A    between atoms: _449  and  _450
REMARK  193  A    between atoms: _455  and  _457
REMARK  194  A    between atoms: _457  and  _458
REMARK  195  A    between atoms: _457  and  _460
REMARK  196  A    between atoms: _460  and  _461
REMARK  197  A    between atoms: _461  and  _462
REMARK  198  A    between atoms: _465  and  _467
REMARK  199  A    between atoms: _467  and  _468
REMARK  200  A    between atoms: _467  and  _470
REMARK  201  A    between atoms: _470  and  _471
REMARK  202  A    between atoms: _476  and  _477
REMARK  203  A    between atoms: _479  and  _481
REMARK  204  A    between atoms: _481  and  _482
REMARK  205  A    between atoms: _481  and  _484
REMARK  206  A    between atoms: _484  and  _485
REMARK  207  A    between atoms: _488  and  _490
REMARK  208  A    between atoms: _490  and  _491
REMARK  209  A    between atoms: _490  and  _493
REMARK  210  A    between atoms: _493  and  _494
REMARK  211  A    between atoms: _494  and  _495
REMARK  212  A    between atoms: _495  and  _496
REMARK  213  A    between atoms: _496  and  _497
REMARK  214  A    between atoms: _501  and  _503
REMARK  215  A    between atoms: _503  and  _504
REMARK  216  A    between atoms: _506  and  _508
REMARK  217  A    between atoms: _508  and  _509
REMARK  218  A    between atoms: _508  and  _511
REMARK  219  A    between atoms: _511  and  _512
REMARK  220  A    between atoms: _517  and  _518
REMARK  221  A    between atoms: _520  and  _522
REMARK  222  A    between atoms: _522  and  _523
REMARK  223  A    between atoms: _525  and  _527
REMARK  224  A    between atoms: _527  and  _528
REMARK  225  A    between atoms: _527  and  _530
REMARK  226  A    between atoms: _530  and  _531
REMARK                            x       y       z     vdW  Elec       q    Type
REMARK                         _______ _______ _______ _____ _____    ______ ____
ROOT
ATOM      1  O   HOH     1       3.813  19.342  55.304  0.00  0.00    +0.000 OA
ENDROOT
TORSDOF 0
REMARK  Name = ../refined-set-2016/3tza/3tza_pocket.pdb
REMARK  226 active torsions:
REMARK  status: ('A' for Active; 'I' for Inactive)
REMARK    1  A    between atoms: _1  and  _3
REMARK    2  A    between atoms: _3  and  _4
REMARK    3  A    between atoms: _3  and  _6
REMARK    4  A    between atoms: _6  and  _7
REMARK    5  A    between atoms: _10  and  _12
REMARK    6  A    between atoms: _12  and  _13
REMARK    7  A    between atoms: _12  and  _15
REMARK    8  A    between atoms: _15  and  _16
REMARK    9  A    between atoms: _16  and  _17
REMARK   10  A    between atoms: _20  and  _22
REMARK   11  A    between atoms: _22  and  _23
REMARK   12  A    between atoms: _22  and  _25
REMARK   13  A    between atoms: _25  and  _26
REMARK   14  A    between atoms: _29  and  _30
REMARK   15  A    between atoms: _35  and  _37
REMARK   16  A    between atoms: _37  and  _38
REMARK   17  A    between atoms: _37  and  _40
REMARK   18  A    between atoms: _40  and  _41
REMARK   19  A    between atoms: _46  and  _47
REMARK   20  A    between atoms: _49  and  _51
REMARK   21  A    between atoms: _51  and  _52
REMARK   22  A    between atoms: _51  and  _54
REMARK   23  A    between atoms: _54  and  _55
REMARK   24  A    between atoms: _55  and  _56
REMARK   25  A    between atoms: _56  and  _57
REMARK   26  A    between atoms: _57  and  _58
REMARK   27  A    between atoms: _62  and  _64
REMARK   28  A    between atoms: _64  and  _65
REMARK   29  A    between atoms: _64  and  _67
REMARK   30  A    between atoms: _67  and  _68
REMARK   31  A    between atoms: _73  and  _74
REMARK   32  A    between atoms: _76  and  _78
REMARK   33  A    between atoms: _78  and  _79
REMARK   34  A    between atoms: _81  and  _83
REMARK   35  A    between atoms: _83  and  _84
REMARK   36  A    between atoms: _87  and  _89
REMARK   37  A    between atoms: _89  and  _90
REMARK   38  A    between atoms: _89  and  _92
REMARK   39  A    between atoms: _92  and  _93
REMARK   40  A    between atoms: _93  and  _94
REMARK   41  A    between atoms: _96  and  _98
REMARK   42  A    between atoms: _98  and  _99
REMARK   43  A    between atoms: _98  and  _101
REMARK   44  A    between atoms: _104  and  _106
REMARK   45  A    between atoms: _106  and  _107
REMARK   46  A    between atoms: _111  and  _112
REMARK   47  A    between atoms: _117  and  _119
REMARK   48  A    between atoms: _119  and  _120
REMARK   49  A    between atoms: _119  and  _122
REMARK   50  A    between atoms: _122  and  _123
REMARK   51  A    between atoms: _126  and  _128
REMARK   52  A    between atoms: _128  and  _129
REMARK   53  A    between atoms: _128  and  _131
REMARK   54  A    between atoms: _131  and  _132
REMARK   55  A    between atoms: _135  and  _137
REMARK   56  A    between atoms: _137  and  _138
REMARK   57  A    between atoms: _137  and  _140
REMARK   58  A    between atoms: _140  and  _141
REMARK   59  A    between atoms: _144  and  _146
REMARK   60  A    between atoms: _146  and  _147
REMARK   61  A    between atoms: _146  and  _149
REMARK   62  A    between atoms: _149  and  _150
REMARK   63  A    between atoms: _153  and  _155
REMARK   64  A    between atoms: _155  and  _156
REMARK   65  A    between atoms: _155  and  _158
REMARK   66  A    between atoms: _158  and  _159
REMARK   67  A    between atoms: _159  and  _160
REMARK   68  A    between atoms: _160  and  _161
REMARK   69  A    between atoms: _170  and  _172
REMARK   70  A    between atoms: _172  and  _173
REMARK   71  A    between atoms: _172  and  _175
REMARK   72  A    between atoms: _175  and  _176
REMARK   73  A    between atoms: _182  and  _184
REMARK   74  A    between atoms: _184  and  _185
REMARK   75  A    between atoms: _184  and  _187
REMARK   76  A    between atoms: _187  and  _188
REMARK   77  A    between atoms: _191  and  _193
REMARK   78  A    between atoms: _193  and  _194
REMARK   79  A    between atoms: _196  and  _198
REMARK   80  A    between atoms: _198  and  _199
REMARK   81  A    between atoms: _198  and  _201
REMARK   82  A    between atoms: _201  and  _202
REMARK   83  A    between atoms: _205  and  _207
REMARK   84  A    between atoms: _207  and  _208
REMARK   85  A    between atoms: _207  and  _210
REMARK   86  A    between atoms: _210  and  _211
REMARK   87  A    between atoms: _213  and  _215
REMARK   88  A    between atoms: _215  and  _216
REMARK   89  A    between atoms: _215  and  _218
REMARK   90  A    between atoms: _218  and  _219
REMARK   91  A    between atoms: _219  and  _220
REMARK   92  A    between atoms: _222  and  _224
REMARK   93  A    between atoms: _224  and  _225
REMARK   94  A    between atoms: _224  and  _227
REMARK   95  A    between atoms: _227  and  _228
REMARK   96  A    between atoms: _231  and  _233
REMARK   97  A    between atoms: _233  and  _234
REMARK   98  A    between atoms: _233  and  _236
REMARK   99  A    between atoms: _236  and  _237
REMARK  100  A    between atoms: _240  and  _242
REMARK  101  A    between atoms: _242  and  _243
REMARK  102  A    between atoms: _242  and  _245
REMARK  103  A    between atoms: _245  and  _246
REMARK  104  A    between atoms: _249  and  _251
REMARK  105  A    between atoms: _251  and  _252
REMARK  106  A    between atoms: _251  and  _254
REMARK  107  A    between atoms: _254  and  _255
REMARK  108  A    between atoms: _257  and  _259
REMARK  109  A    between atoms: _259  and  _260
REMARK  110  A    between atoms: _262  and  _264
REMARK  111  A    between atoms: _264  and  _265
REMARK  112  A    between atoms: _264  and  _267
REMARK  113  A    between atoms: _267  and  _268
REMARK  114  A    between atoms: _270  and  _272
REMARK  115  A    between atoms: _272  and  _273
REMARK  116  A    between atoms: _272  and  _275
REMARK  117  A    between atoms: _275  and  _276
REMARK  118  A    between atoms: _279  and  _281
REMARK  119  A    between atoms: _281  and  _282
REMARK  120  A    between atoms: _281  and  _284
REMARK  121  A    between atoms: _284  and  _285
REMARK  122  A    between atoms: _285  and  _286
REMARK  123  A    between atoms: _286  and  _287
REMARK  124  A    between atoms: _287  and  _288
REMARK  125  A    between atoms: _292  and  _294
REMARK  126  A    between atoms: _294  and  _295
REMARK  127  A    between atoms: _294  and  _297
REMARK  128  A    between atoms: _297  and  _298
REMARK  129  A    between atoms: _298  and  _299
REMARK  130  A    between atoms: _302  and  _304
REMARK  131  A    between atoms: _304  and  _305
REMARK  132  A    between atoms: _304  and  _307
REMARK  133  A    between atoms: _307  and  _308
REMARK  134  A    between atoms: _314  and  _316
REMARK  135  A    between atoms: _316  and  _317
REMARK  136  A    between atoms: _316  and  _319
REMARK  137  A    between atoms: _322  and  _324
REMARK  138  A    between atoms: _324  and  _325
REMARK  139  A    between atoms: _324  and  _327
REMARK  140  A    between atoms: _327  and  _328
REMARK  141  A    between atoms: _328  and  _329
REMARK  142  A    between atoms: _329  and  _330
REMARK  143  A    between atoms: _339  and  _341
REMARK  144  A    between atoms: _341  and  _342
REMARK  145  A    between atoms: _341  and  _344
REMARK  146  A    between atoms: _344  and  _345
REMARK  147  A    between atoms: _348  and  _350
REMARK  148  A    between atoms: _350  and  _351
REMARK  149  A    between atoms: _350  and  _353
REMARK  150  A    between atoms: _353  and  _354
REMARK  151  A    between atoms: _357  and  _359
REMARK  152  A    between atoms: _359  and  _360
REMARK  153  A    between atoms: _363  and  _365
REMARK  154  A    between atoms: _365  and  _366
REMARK  155  A    between atoms: _368  and  _370
REMARK  156  A    between atoms: _370  and  _371
REMARK  157  A    between atoms: _370  and  _373
REMARK  158  A    between atoms: _376  and  _378
REMARK  159  A    between atoms: _378  and  _379
REMARK  160  A    between atoms: _378  and  _381
REMARK  161  A    between atoms: _381  and  _382
REMARK  162  A    between atoms: _387  and  _388
REMARK  163  A    between atoms: _390  and  _392
REMARK  164  A    between atoms: _392  and  _393
REMARK  165  A    between atoms: _392  and  _395
REMARK  166  A    between atoms: _395  and  _396
REMARK  167  A    between atoms: _399  and  _401
REMARK  168  A    between atoms: _401  and  _402
REMARK  169  A    between atoms: _401  and  _404
REMARK  170  A    between atoms: _404  and  _405
REMARK  171  A    between atoms: _408  and  _410
REMARK  172  A    between atoms: _410  and  _411
REMARK  173  A    between atoms: _410  and  _413
REMARK  174  A    between atoms: _413  and  _414
REMARK  175  A    between atoms: _414  and  _415
REMARK  176  A    between atoms: _418  and  _420
REMARK  177  A    between atoms: _420  and  _421
REMARK  178  A    between atoms: _420  and  _423
REMARK  179  A    between atoms: _423  and  _424
REMARK  180  A    between atoms: _426  and  _428
REMARK  181  A    between atoms: _428  and  _429
REMARK  182  A    between atoms: _428  and  _431
REMARK  183  A    between atoms: _431  and  _432
REMARK  184  A    between atoms: _435  and  _437
REMARK  185  A    between atoms: _437  and  _438
REMARK  186  A    between atoms: _437  and  _440
REMARK  187  A    between atoms: _440  and  _441
REMARK  188  A    between atoms: _441  and  _442
REMARK  189  A    between atoms: _444  and  _446
REMARK  190  A    between atoms: _446  and  _447
REMARK  191  A    between atoms: _446  and  _449
REMARK  192  A    between atoms: _449  and  _450
REMARK  193  A    between atoms: _455  and  _457
REMARK  194  A    between atoms: _457  and  _458
REMARK  195  A    between atoms: _457  and  _460
REMARK  196  A    between atoms: _460  and  _461
REMARK  197  A    between atoms: _461  and  _462
REMARK  198  A    between atoms: _465  and  _467
REMARK  199  A    between atoms: _467  and  _468
REMARK  200  A    between atoms: _467  and  _470
REMARK  201  A    between atoms: _470  and  _471
REMARK  202  A    between atoms: _476  and  _477
REMARK  203  A    between atoms: _479  and  _481
REMARK  204  A    between atoms: _481  and  _482
REMARK  205  A    between atoms: _481  and  _484
REMARK  206  A    between atoms: _484  and  _485
REMARK  207  A    between atoms: _488  and  _490
REMARK  208  A    between atoms: _490  and  _491
REMARK  209  A    between atoms: _490  and  _493
REMARK  210  A    between atoms: _493  and  _494
REMARK  211  A    between atoms: _494  and  _495
REMARK  212  A    between atoms: _495  and  _496
REMARK  213  A    between atoms: _496  and  _497
REMARK  214  A    between atoms: _501  and  _503
REMARK  215  A    between atoms: _503  and  _504
REMARK  216  A    between atoms: _506  and  _508
REMARK  217  A    between atoms: _508  and  _509
REMARK  218  A    between atoms: _508  and  _511
REMARK  219  A    between atoms: _511  and  _512
REMARK  220  A    between atoms: _517  and  _518
REMARK  221  A    between atoms: _520  and  _522
REMARK  222  A    between atoms: _522  and  _523
REMARK  223  A    between atoms: _525  and  _527
REMARK  224  A    between atoms: _527  and  _528
REMARK  225  A    between atoms: _527  and  _530
REMARK  226  A    between atoms: _530  and  _531
REMARK                            x       y       z     vdW  Elec       q    Type
REMARK                         _______ _______ _______ _____ _____    ______ ____
ROOT
ATOM      1  O   HOH     1       1.245  27.664  51.477  0.00  0.00    +0.000 OA
ENDROOT
TORSDOF 0
REMARK  Name = ../refined-set-2016/3tza/3tza_pocket.pdb
REMARK  226 active torsions:
REMARK  status: ('A' for Active; 'I' for Inactive)
REMARK    1  A    between atoms: _1  and  _3
REMARK    2  A    between atoms: _3  and  _4
REMARK    3  A    between atoms: _3  and  _6
REMARK    4  A    between atoms: _6  and  _7
REMARK    5  A    between atoms: _10  and  _12
REMARK    6  A    between atoms: _12  and  _13
REMARK    7  A    between atoms: _12  and  _15
REMARK    8  A    between atoms: _15  and  _16
REMARK    9  A    between atoms: _16  and  _17
REMARK   10  A    between atoms: _20  and  _22
REMARK   11  A    between atoms: _22  and  _23
REMARK   12  A    between atoms: _22  and  _25
REMARK   13  A    between atoms: _25  and  _26
REMARK   14  A    between atoms: _29  and  _30
REMARK   15  A    between atoms: _35  and  _37
REMARK   16  A    between atoms: _37  and  _38
REMARK   17  A    between atoms: _37  and  _40
REMARK   18  A    between atoms: _40  and  _41
REMARK   19  A    between atoms: _46  and  _47
REMARK   20  A    between atoms: _49  and  _51
REMARK   21  A    between atoms: _51  and  _52
REMARK   22  A    between atoms: _51  and  _54
REMARK   23  A    between atoms: _54  and  _55
REMARK   24  A    between atoms: _55  and  _56
REMARK   25  A    between atoms: _56  and  _57
REMARK   26  A    between atoms: _57  and  _58
REMARK   27  A    between atoms: _62  and  _64
REMARK   28  A    between atoms: _64  and  _65
REMARK   29  A    between atoms: _64  and  _67
REMARK   30  A    between atoms: _67  and  _68
REMARK   31  A    between atoms: _73  and  _74
REMARK   32  A    between atoms: _76  and  _78
REMARK   33  A    between atoms: _78  and  _79
REMARK   34  A    between atoms: _81  and  _83
REMARK   35  A    between atoms: _83  and  _84
REMARK   36  A    between atoms: _87  and  _89
REMARK   37  A    between atoms: _89  and  _90
REMARK   38  A    between atoms: _89  and  _92
REMARK   39  A    between atoms: _92  and  _93
REMARK   40  A    between atoms: _93  and  _94
REMARK   41  A    between atoms: _96  and  _98
REMARK   42  A    between atoms: _98  and  _99
REMARK   43  A    between atoms: _98  and  _101
REMARK   44  A    between atoms: _104  and  _106
REMARK   45  A    between atoms: _106  and  _107
REMARK   46  A    between atoms: _111  and  _112
REMARK   47  A    between atoms: _117  and  _119
REMARK   48  A    between atoms: _119  and  _120
REMARK   49  A    between atoms: _119  and  _122
REMARK   50  A    between atoms: _122  and  _123
REMARK   51  A    between atoms: _126  and  _128
REMARK   52  A    between atoms: _128  and  _129
REMARK   53  A    between atoms: _128  and  _131
REMARK   54  A    between atoms: _131  and  _132
REMARK   55  A    between atoms: _135  and  _137
REMARK   56  A    between atoms: _137  and  _138
REMARK   57  A    between atoms: _137  and  _140
REMARK   58  A    between atoms: _140  and  _141
REMARK   59  A    between atoms: _144  and  _146
REMARK   60  A    between atoms: _146  and  _147
REMARK   61  A    between atoms: _146  and  _149
REMARK   62  A    between atoms: _149  and  _150
REMARK   63  A    between atoms: _153  and  _155
REMARK   64  A    between atoms: _155  and  _156
REMARK   65  A    between atoms: _155  and  _158
REMARK   66  A    between atoms: _158  and  _159
REMARK   67  A    between atoms: _159  and  _160
REMARK   68  A    between atoms: _160  and  _161
REMARK   69  A    between atoms: _170  and  _172
REMARK   70  A    between atoms: _172  and  _173
REMARK   71  A    between atoms: _172  and  _175
REMARK   72  A    between atoms: _175  and  _176
REMARK   73  A    between atoms: _182  and  _184
REMARK   74  A    between atoms: _184  and  _185
REMARK   75  A    between atoms: _184  and  _187
REMARK   76  A    between atoms: _187  and  _188
REMARK   77  A    between atoms: _191  and  _193
REMARK   78  A    between atoms: _193  and  _194
REMARK   79  A    between atoms: _196  and  _198
REMARK   80  A    between atoms: _198  and  _199
REMARK   81  A    between atoms: _198  and  _201
REMARK   82  A    between atoms: _201  and  _202
REMARK   83  A    between atoms: _205  and  _207
REMARK   84  A    between atoms: _207  and  _208
REMARK   85  A    between atoms: _207  and  _210
REMARK   86  A    between atoms: _210  and  _211
REMARK   87  A    between atoms: _213  and  _215
REMARK   88  A    between atoms: _215  and  _216
REMARK   89  A    between atoms: _215  and  _218
REMARK   90  A    between atoms: _218  and  _219
REMARK   91  A    between atoms: _219  and  _220
REMARK   92  A    between atoms: _222  and  _224
REMARK   93  A    between atoms: _224  and  _225
REMARK   94  A    between atoms: _224  and  _227
REMARK   95  A    between atoms: _227  and  _228
REMARK   96  A    between atoms: _231  and  _233
REMARK   97  A    between atoms: _233  and  _234
REMARK   98  A    between atoms: _233  and  _236
REMARK   99  A    between atoms: _236  and  _237
REMARK  100  A    between atoms: _240  and  _242
REMARK  101  A    between atoms: _242  and  _243
REMARK  102  A    between atoms: _242  and  _245
REMARK  103  A    between atoms: _245  and  _246
REMARK  104  A    between atoms: _249  and  _251
REMARK  105  A    between atoms: _251  and  _252
REMARK  106  A    between atoms: _251  and  _254
REMARK  107  A    between atoms: _254  and  _255
REMARK  108  A    between atoms: _257  and  _259
REMARK  109  A    between atoms: _259  and  _260
REMARK  110  A    between atoms: _262  and  _264
REMARK  111  A    between atoms: _264  and  _265
REMARK  112  A    between atoms: _264  and  _267
REMARK  113  A    between atoms: _267  and  _268
REMARK  114  A    between atoms: _270  and  _272
REMARK  115  A    between atoms: _272  and  _273
REMARK  116  A    between atoms: _272  and  _275
REMARK  117  A    between atoms: _275  and  _276
REMARK  118  A    between atoms: _279  and  _281
REMARK  119  A    between atoms: _281  and  _282
REMARK  120  A    between atoms: _281  and  _284
REMARK  121  A    between atoms: _284  and  _285
REMARK  122  A    between atoms: _285  and  _286
REMARK  123  A    between atoms: _286  and  _287
REMARK  124  A    between atoms: _287  and  _288
REMARK  125  A    between atoms: _292  and  _294
REMARK  126  A    between atoms: _294  and  _295
REMARK  127  A    between atoms: _294  and  _297
REMARK  128  A    between atoms: _297  and  _298
REMARK  129  A    between atoms: _298  and  _299
REMARK  130  A    between atoms: _302  and  _304
REMARK  131  A    between atoms: _304  and  _305
REMARK  132  A    between atoms: _304  and  _307
REMARK  133  A    between atoms: _307  and  _308
REMARK  134  A    between atoms: _314  and  _316
REMARK  135  A    between atoms: _316  and  _317
REMARK  136  A    between atoms: _316  and  _319
REMARK  137  A    between atoms: _322  and  _324
REMARK  138  A    between atoms: _324  and  _325
REMARK  139  A    between atoms: _324  and  _327
REMARK  140  A    between atoms: _327  and  _328
REMARK  141  A    between atoms: _328  and  _329
REMARK  142  A    between atoms: _329  and  _330
REMARK  143  A    between atoms: _339  and  _341
REMARK  144  A    between atoms: _341  and  _342
REMARK  145  A    between atoms: _341  and  _344
REMARK  146  A    between atoms: _344  and  _345
REMARK  147  A    between atoms: _348  and  _350
REMARK  148  A    between atoms: _350  and  _351
REMARK  149  A    between atoms: _350  and  _353
REMARK  150  A    between atoms: _353  and  _354
REMARK  151  A    between atoms: _357  and  _359
REMARK  152  A    between atoms: _359  and  _360
REMARK  153  A    between atoms: _363  and  _365
REMARK  154  A    between atoms: _365  and  _366
REMARK  155  A    between atoms: _368  and  _370
REMARK  156  A    between atoms: _370  and  _371
REMARK  157  A    between atoms: _370  and  _373
REMARK  158  A    between atoms: _376  and  _378
REMARK  159  A    between atoms: _378  and  _379
REMARK  160  A    between atoms: _378  and  _381
REMARK  161  A    between atoms: _381  and  _382
REMARK  162  A    between atoms: _387  and  _388
REMARK  163  A    between atoms: _390  and  _392
REMARK  164  A    between atoms: _392  and  _393
REMARK  165  A    between atoms: _392  and  _395
REMARK  166  A    between atoms: _395  and  _396
REMARK  167  A    between atoms: _399  and  _401
REMARK  168  A    between atoms: _401  and  _402
REMARK  169  A    between atoms: _401  and  _404
REMARK  170  A    between atoms: _404  and  _405
REMARK  171  A    between atoms: _408  and  _410
REMARK  172  A    between atoms: _410  and  _411
REMARK  173  A    between atoms: _410  and  _413
REMARK  174  A    between atoms: _413  and  _414
REMARK  175  A    between atoms: _414  and  _415
REMARK  176  A    between atoms: _418  and  _420
REMARK  177  A    between atoms: _420  and  _421
REMARK  178  A    between atoms: _420  and  _423
REMARK  179  A    between atoms: _423  and  _424
REMARK  180  A    between atoms: _426  and  _428
REMARK  181  A    between atoms: _428  and  _429
REMARK  182  A    between atoms: _428  and  _431
REMARK  183  A    between atoms: _431  and  _432
REMARK  184  A    between atoms: _435  and  _437
REMARK  185  A    between atoms: _437  and  _438
REMARK  186  A    between atoms: _437  and  _440
REMARK  187  A    between atoms: _440  and  _441
REMARK  188  A    between atoms: _441  and  _442
REMARK  189  A    between atoms: _444  and  _446
REMARK  190  A    between atoms: _446  and  _447
REMARK  191  A    between atoms: _446  and  _449
REMARK  192  A    between atoms: _449  and  _450
REMARK  193  A    between atoms: _455  and  _457
REMARK  194  A    between atoms: _457  and  _458
REMARK  195  A    between atoms: _457  and  _460
REMARK  196  A    between atoms: _460  and  _461
REMARK  197  A    between atoms: _461  and  _462
REMARK  198  A    between atoms: _465  and  _467
REMARK  199  A    between atoms: _467  and  _468
REMARK  200  A    between atoms: _467  and  _470
REMARK  201  A    between atoms: _470  and  _471
REMARK  202  A    between atoms: _476  and  _477
REMARK  203  A    between atoms: _479  and  _481
REMARK  204  A    between atoms: _481  and  _482
REMARK  205  A    between atoms: _481  and  _484
REMARK  206  A    between atoms: _484  and  _485
REMARK  207  A    between atoms: _488  and  _490
REMARK  208  A    between atoms: _490  and  _491
REMARK  209  A    between atoms: _490  and  _493
REMARK  210  A    between atoms: _493  and  _494
REMARK  211  A    between atoms: _494  and  _495
REMARK  212  A    between atoms: _495  and  _496
REMARK  213  A    between atoms: _496  and  _497
REMARK  214  A    between atoms: _501  and  _503
REMARK  215  A    between atoms: _503  and  _504
REMARK  216  A    between atoms: _506  and  _508
REMARK  217  A    between atoms: _508  and  _509
REMARK  218  A    between atoms: _508  and  _511
REMARK  219  A    between atoms: _511  and  _512
REMARK  220  A    between atoms: _517  and  _518
REMARK  221  A    between atoms: _520  and  _522
REMARK  222  A    between atoms: _522  and  _523
REMARK  223  A    between atoms: _525  and  _527
REMARK  224  A    between atoms: _527  and  _528
REMARK  225  A    between atoms: _527  and  _530
REMARK  226  A    between atoms: _530  and  _531
REMARK                            x       y       z     vdW  Elec       q    Type
REMARK                         _______ _______ _______ _____ _____    ______ ____
ROOT
ATOM      1  O   HOH     1      -5.412  31.284  50.669  0.00  0.00    +0.000 OA
ENDROOT
TORSDOF 0
REMARK  Name = ../refined-set-2016/3tza/3tza_pocket.pdb
REMARK  226 active torsions:
REMARK  status: ('A' for Active; 'I' for Inactive)
REMARK    1  A    between atoms: _1  and  _3
REMARK    2  A    between atoms: _3  and  _4
REMARK    3  A    between atoms: _3  and  _6
REMARK    4  A    between atoms: _6  and  _7
REMARK    5  A    between atoms: _10  and  _12
REMARK    6  A    between atoms: _12  and  _13
REMARK    7  A    between atoms: _12  and  _15
REMARK    8  A    between atoms: _15  and  _16
REMARK    9  A    between atoms: _16  and  _17
REMARK   10  A    between atoms: _20  and  _22
REMARK   11  A    between atoms: _22  and  _23
REMARK   12  A    between atoms: _22  and  _25
REMARK   13  A    between atoms: _25  and  _26
REMARK   14  A    between atoms: _29  and  _30
REMARK   15  A    between atoms: _35  and  _37
REMARK   16  A    between atoms: _37  and  _38
REMARK   17  A    between atoms: _37  and  _40
REMARK   18  A    between atoms: _40  and  _41
REMARK   19  A    between atoms: _46  and  _47
REMARK   20  A    between atoms: _49  and  _51
REMARK   21  A    between atoms: _51  and  _52
REMARK   22  A    between atoms: _51  and  _54
REMARK   23  A    between atoms: _54  and  _55
REMARK   24  A    between atoms: _55  and  _56
REMARK   25  A    between atoms: _56  and  _57
REMARK   26  A    between atoms: _57  and  _58
REMARK   27  A    between atoms: _62  and  _64
REMARK   28  A    between atoms: _64  and  _65
REMARK   29  A    between atoms: _64  and  _67
REMARK   30  A    between atoms: _67  and  _68
REMARK   31  A    between atoms: _73  and  _74
REMARK   32  A    between atoms: _76  and  _78
REMARK   33  A    between atoms: _78  and  _79
REMARK   34  A    between atoms: _81  and  _83
REMARK   35  A    between atoms: _83  and  _84
REMARK   36  A    between atoms: _87  and  _89
REMARK   37  A    between atoms: _89  and  _90
REMARK   38  A    between atoms: _89  and  _92
REMARK   39  A    between atoms: _92  and  _93
REMARK   40  A    between atoms: _93  and  _94
REMARK   41  A    between atoms: _96  and  _98
REMARK   42  A    between atoms: _98  and  _99
REMARK   43  A    between atoms: _98  and  _101
REMARK   44  A    between atoms: _104  and  _106
REMARK   45  A    between atoms: _106  and  _107
REMARK   46  A    between atoms: _111  and  _112
REMARK   47  A    between atoms: _117  and  _119
REMARK   48  A    between atoms: _119  and  _120
REMARK   49  A    between atoms: _119  and  _122
REMARK   50  A    between atoms: _122  and  _123
REMARK   51  A    between atoms: _126  and  _128
REMARK   52  A    between atoms: _128  and  _129
REMARK   53  A    between atoms: _128  and  _131
REMARK   54  A    between atoms: _131  and  _132
REMARK   55  A    between atoms: _135  and  _137
REMARK   56  A    between atoms: _137  and  _138
REMARK   57  A    between atoms: _137  and  _140
REMARK   58  A    between atoms: _140  and  _141
REMARK   59  A    between atoms: _144  and  _146
REMARK   60  A    between atoms: _146  and  _147
REMARK   61  A    between atoms: _146  and  _149
REMARK   62  A    between atoms: _149  and  _150
REMARK   63  A    between atoms: _153  and  _155
REMARK   64  A    between atoms: _155  and  _156
REMARK   65  A    between atoms: _155  and  _158
REMARK   66  A    between atoms: _158  and  _159
REMARK   67  A    between atoms: _159  and  _160
REMARK   68  A    between atoms: _160  and  _161
REMARK   69  A    between atoms: _170  and  _172
REMARK   70  A    between atoms: _172  and  _173
REMARK   71  A    between atoms: _172  and  _175
REMARK   72  A    between atoms: _175  and  _176
REMARK   73  A    between atoms: _182  and  _184
REMARK   74  A    between atoms: _184  and  _185
REMARK   75  A    between atoms: _184  and  _187
REMARK   76  A    between atoms: _187  and  _188
REMARK   77  A    between atoms: _191  and  _193
REMARK   78  A    between atoms: _193  and  _194
REMARK   79  A    between atoms: _196  and  _198
REMARK   80  A    between atoms: _198  and  _199
REMARK   81  A    between atoms: _198  and  _201
REMARK   82  A    between atoms: _201  and  _202
REMARK   83  A    between atoms: _205  and  _207
REMARK   84  A    between atoms: _207  and  _208
REMARK   85  A    between atoms: _207  and  _210
REMARK   86  A    between atoms: _210  and  _211
REMARK   87  A    between atoms: _213  and  _215
REMARK   88  A    between atoms: _215  and  _216
REMARK   89  A    between atoms: _215  and  _218
REMARK   90  A    between atoms: _218  and  _219
REMARK   91  A    between atoms: _219  and  _220
REMARK   92  A    between atoms: _222  and  _224
REMARK   93  A    between atoms: _224  and  _225
REMARK   94  A    between atoms: _224  and  _227
REMARK   95  A    between atoms: _227  and  _228
REMARK   96  A    between atoms: _231  and  _233
REMARK   97  A    between atoms: _233  and  _234
REMARK   98  A    between atoms: _233  and  _236
REMARK   99  A    between atoms: _236  and  _237
REMARK  100  A    between atoms: _240  and  _242
REMARK  101  A    between atoms: _242  and  _243
REMARK  102  A    between atoms: _242  and  _245
REMARK  103  A    between atoms: _245  and  _246
REMARK  104  A    between atoms: _249  and  _251
REMARK  105  A    between atoms: _251  and  _252
REMARK  106  A    between atoms: _251  and  _254
REMARK  107  A    between atoms: _254  and  _255
REMARK  108  A    between atoms: _257  and  _259
REMARK  109  A    between atoms: _259  and  _260
REMARK  110  A    between atoms: _262  and  _264
REMARK  111  A    between atoms: _264  and  _265
REMARK  112  A    between atoms: _264  and  _267
REMARK  113  A    between atoms: _267  and  _268
REMARK  114  A    between atoms: _270  and  _272
REMARK  115  A    between atoms: _272  and  _273
REMARK  116  A    between atoms: _272  and  _275
REMARK  117  A    between atoms: _275  and  _276
REMARK  118  A    between atoms: _279  and  _281
REMARK  119  A    between atoms: _281  and  _282
REMARK  120  A    between atoms: _281  and  _284
REMARK  121  A    between atoms: _284  and  _285
REMARK  122  A    between atoms: _285  and  _286
REMARK  123  A    between atoms: _286  and  _287
REMARK  124  A    between atoms: _287  and  _288
REMARK  125  A    between atoms: _292  and  _294
REMARK  126  A    between atoms: _294  and  _295
REMARK  127  A    between atoms: _294  and  _297
REMARK  128  A    between atoms: _297  and  _298
REMARK  129  A    between atoms: _298  and  _299
REMARK  130  A    between atoms: _302  and  _304
REMARK  131  A    between atoms: _304  and  _305
REMARK  132  A    between atoms: _304  and  _307
REMARK  133  A    between atoms: _307  and  _308
REMARK  134  A    between atoms: _314  and  _316
REMARK  135  A    between atoms: _316  and  _317
REMARK  136  A    between atoms: _316  and  _319
REMARK  137  A    between atoms: _322  and  _324
REMARK  138  A    between atoms: _324  and  _325
REMARK  139  A    between atoms: _324  and  _327
REMARK  140  A    between atoms: _327  and  _328
REMARK  141  A    between atoms: _328  and  _329
REMARK  142  A    between atoms: _329  and  _330
REMARK  143  A    between atoms: _339  and  _341
REMARK  144  A    between atoms: _341  and  _342
REMARK  145  A    between atoms: _341  and  _344
REMARK  146  A    between atoms: _344  and  _345
REMARK  147  A    between atoms: _348  and  _350
REMARK  148  A    between atoms: _350  and  _351
REMARK  149  A    between atoms: _350  and  _353
REMARK  150  A    between atoms: _353  and  _354
REMARK  151  A    between atoms: _357  and  _359
REMARK  152  A    between atoms: _359  and  _360
REMARK  153  A    between atoms: _363  and  _365
REMARK  154  A    between atoms: _365  and  _366
REMARK  155  A    between atoms: _368  and  _370
REMARK  156  A    between atoms: _370  and  _371
REMARK  157  A    between atoms: _370  and  _373
REMARK  158  A    between atoms: _376  and  _378
REMARK  159  A    between atoms: _378  and  _379
REMARK  160  A    between atoms: _378  and  _381
REMARK  161  A    between atoms: _381  and  _382
REMARK  162  A    between atoms: _387  and  _388
REMARK  163  A    between atoms: _390  and  _392
REMARK  164  A    between atoms: _392  and  _393
REMARK  165  A    between atoms: _392  and  _395
REMARK  166  A    between atoms: _395  and  _396
REMARK  167  A    between atoms: _399  and  _401
REMARK  168  A    between atoms: _401  and  _402
REMARK  169  A    between atoms: _401  and  _404
REMARK  170  A    between atoms: _404  and  _405
REMARK  171  A    between atoms: _408  and  _410
REMARK  172  A    between atoms: _410  and  _411
REMARK  173  A    between atoms: _410  and  _413
REMARK  174  A    between atoms: _413  and  _414
REMARK  175  A    between atoms: _414  and  _415
REMARK  176  A    between atoms: _418  and  _420
REMARK  177  A    between atoms: _420  and  _421
REMARK  178  A    between atoms: _420  and  _423
REMARK  179  A    between atoms: _423  and  _424
REMARK  180  A    between atoms: _426  and  _428
REMARK  181  A    between atoms: _428  and  _429
REMARK  182  A    between atoms: _428  and  _431
REMARK  183  A    between atoms: _431  and  _432
REMARK  184  A    between atoms: _435  and  _437
REMARK  185  A    between atoms: _437  and  _438
REMARK  186  A    between atoms: _437  and  _440
REMARK  187  A    between atoms: _440  and  _441
REMARK  188  A    between atoms: _441  and  _442
REMARK  189  A    between atoms: _444  and  _446
REMARK  190  A    between atoms: _446  and  _447
REMARK  191  A    between atoms: _446  and  _449
REMARK  192  A    between atoms: _449  and  _450
REMARK  193  A    between atoms: _455  and  _457
REMARK  194  A    between atoms: _457  and  _458
REMARK  195  A    between atoms: _457  and  _460
REMARK  196  A    between atoms: _460  and  _461
REMARK  197  A    between atoms: _461  and  _462
REMARK  198  A    between atoms: _465  and  _467
REMARK  199  A    between atoms: _467  and  _468
REMARK  200  A    between atoms: _467  and  _470
REMARK  201  A    between atoms: _470  and  _471
REMARK  202  A    between atoms: _476  and  _477
REMARK  203  A    between atoms: _479  and  _481
REMARK  204  A    between atoms: _481  and  _482
REMARK  205  A    between atoms: _481  and  _484
REMARK  206  A    between atoms: _484  and  _485
REMARK  207  A    between atoms: _488  and  _490
REMARK  208  A    between atoms: _490  and  _491
REMARK  209  A    between atoms: _490  and  _493
REMARK  210  A    between atoms: _493  and  _494
REMARK  211  A    between atoms: _494  and  _495
REMARK  212  A    between atoms: _495  and  _496
REMARK  213  A    between atoms: _496  and  _497
REMARK  214  A    between atoms: _501  and  _503
REMARK  215  A    between atoms: _503  and  _504
REMARK  216  A    between atoms: _506  and  _508
REMARK  217  A    between atoms: _508  and  _509
REMARK  218  A    between atoms: _508  and  _511
REMARK  219  A    between atoms: _511  and  _512
REMARK  220  A    between atoms: _517  and  _518
REMARK  221  A    between atoms: _520  and  _522
REMARK  222  A    between atoms: _522  and  _523
REMARK  223  A    between atoms: _525  and  _527
REMARK  224  A    between atoms: _527  and  _528
REMARK  225  A    between atoms: _527  and  _530
REMARK  226  A    between atoms: _530  and  _531
REMARK                            x       y       z     vdW  Elec       q    Type
REMARK                         _______ _______ _______ _____ _____    ______ ____
ROOT
ATOM      1  O   HOH     1      -2.469  21.225  57.719  0.00  0.00    +0.000 OA
ENDROOT
TORSDOF 0
REMARK  Name = ../refined-set-2016/3tza/3tza_pocket.pdb
REMARK  226 active torsions:
REMARK  status: ('A' for Active; 'I' for Inactive)
REMARK    1  A    between atoms: _1  and  _3
REMARK    2  A    between atoms: _3  and  _4
REMARK    3  A    between atoms: _3  and  _6
REMARK    4  A    between atoms: _6  and  _7
REMARK    5  A    between atoms: _10  and  _12
REMARK    6  A    between atoms: _12  and  _13
REMARK    7  A    between atoms: _12  and  _15
REMARK    8  A    between atoms: _15  and  _16
REMARK    9  A    between atoms: _16  and  _17
REMARK   10  A    between atoms: _20  and  _22
REMARK   11  A    between atoms: _22  and  _23
REMARK   12  A    between atoms: _22  and  _25
REMARK   13  A    between atoms: _25  and  _26
REMARK   14  A    between atoms: _29  and  _30
REMARK   15  A    between atoms: _35  and  _37
REMARK   16  A    between atoms: _37  and  _38
REMARK   17  A    between atoms: _37  and  _40
REMARK   18  A    between atoms: _40  and  _41
REMARK   19  A    between atoms: _46  and  _47
REMARK   20  A    between atoms: _49  and  _51
REMARK   21  A    between atoms: _51  and  _52
REMARK   22  A    between atoms: _51  and  _54
REMARK   23  A    between atoms: _54  and  _55
REMARK   24  A    between atoms: _55  and  _56
REMARK   25  A    between atoms: _56  and  _57
REMARK   26  A    between atoms: _57  and  _58
REMARK   27  A    between atoms: _62  and  _64
REMARK   28  A    between atoms: _64  and  _65
REMARK   29  A    between atoms: _64  and  _67
REMARK   30  A    between atoms: _67  and  _68
REMARK   31  A    between atoms: _73  and  _74
REMARK   32  A    between atoms: _76  and  _78
REMARK   33  A    between atoms: _78  and  _79
REMARK   34  A    between atoms: _81  and  _83
REMARK   35  A    between atoms: _83  and  _84
REMARK   36  A    between atoms: _87  and  _89
REMARK   37  A    between atoms: _89  and  _90
REMARK   38  A    between atoms: _89  and  _92
REMARK   39  A    between atoms: _92  and  _93
REMARK   40  A    between atoms: _93  and  _94
REMARK   41  A    between atoms: _96  and  _98
REMARK   42  A    between atoms: _98  and  _99
REMARK   43  A    between atoms: _98  and  _101
REMARK   44  A    between atoms: _104  and  _106
REMARK   45  A    between atoms: _106  and  _107
REMARK   46  A    between atoms: _111  and  _112
REMARK   47  A    between atoms: _117  and  _119
REMARK   48  A    between atoms: _119  and  _120
REMARK   49  A    between atoms: _119  and  _122
REMARK   50  A    between atoms: _122  and  _123
REMARK   51  A    between atoms: _126  and  _128
REMARK   52  A    between atoms: _128  and  _129
REMARK   53  A    between atoms: _128  and  _131
REMARK   54  A    between atoms: _131  and  _132
REMARK   55  A    between atoms: _135  and  _137
REMARK   56  A    between atoms: _137  and  _138
REMARK   57  A    between atoms: _137  and  _140
REMARK   58  A    between atoms: _140  and  _141
REMARK   59  A    between atoms: _144  and  _146
REMARK   60  A    between atoms: _146  and  _147
REMARK   61  A    between atoms: _146  and  _149
REMARK   62  A    between atoms: _149  and  _150
REMARK   63  A    between atoms: _153  and  _155
REMARK   64  A    between atoms: _155  and  _156
REMARK   65  A    between atoms: _155  and  _158
REMARK   66  A    between atoms: _158  and  _159
REMARK   67  A    between atoms: _159  and  _160
REMARK   68  A    between atoms: _160  and  _161
REMARK   69  A    between atoms: _170  and  _172
REMARK   70  A    between atoms: _172  and  _173
REMARK   71  A    between atoms: _172  and  _175
REMARK   72  A    between atoms: _175  and  _176
REMARK   73  A    between atoms: _182  and  _184
REMARK   74  A    between atoms: _184  and  _185
REMARK   75  A    between atoms: _184  and  _187
REMARK   76  A    between atoms: _187  and  _188
REMARK   77  A    between atoms: _191  and  _193
REMARK   78  A    between atoms: _193  and  _194
REMARK   79  A    between atoms: _196  and  _198
REMARK   80  A    between atoms: _198  and  _199
REMARK   81  A    between atoms: _198  and  _201
REMARK   82  A    between atoms: _201  and  _202
REMARK   83  A    between atoms: _205  and  _207
REMARK   84  A    between atoms: _207  and  _208
REMARK   85  A    between atoms: _207  and  _210
REMARK   86  A    between atoms: _210  and  _211
REMARK   87  A    between atoms: _213  and  _215
REMARK   88  A    between atoms: _215  and  _216
REMARK   89  A    between atoms: _215  and  _218
REMARK   90  A    between atoms: _218  and  _219
REMARK   91  A    between atoms: _219  and  _220
REMARK   92  A    between atoms: _222  and  _224
REMARK   93  A    between atoms: _224  and  _225
REMARK   94  A    between atoms: _224  and  _227
REMARK   95  A    between atoms: _227  and  _228
REMARK   96  A    between atoms: _231  and  _233
REMARK   97  A    between atoms: _233  and  _234
REMARK   98  A    between atoms: _233  and  _236
REMARK   99  A    between atoms: _236  and  _237
REMARK  100  A    between atoms: _240  and  _242
REMARK  101  A    between atoms: _242  and  _243
REMARK  102  A    between atoms: _242  and  _245
REMARK  103  A    between atoms: _245  and  _246
REMARK  104  A    between atoms: _249  and  _251
REMARK  105  A    between atoms: _251  and  _252
REMARK  106  A    between atoms: _251  and  _254
REMARK  107  A    between atoms: _254  and  _255
REMARK  108  A    between atoms: _257  and  _259
REMARK  109  A    between atoms: _259  and  _260
REMARK  110  A    between atoms: _262  and  _264
REMARK  111  A    between atoms: _264  and  _265
REMARK  112  A    between atoms: _264  and  _267
REMARK  113  A    between atoms: _267  and  _268
REMARK  114  A    between atoms: _270  and  _272
REMARK  115  A    between atoms: _272  and  _273
REMARK  116  A    between atoms: _272  and  _275
REMARK  117  A    between atoms: _275  and  _276
REMARK  118  A    between atoms: _279  and  _281
REMARK  119  A    between atoms: _281  and  _282
REMARK  120  A    between atoms: _281  and  _284
REMARK  121  A    between atoms: _284  and  _285
REMARK  122  A    between atoms: _285  and  _286
REMARK  123  A    between atoms: _286  and  _287
REMARK  124  A    between atoms: _287  and  _288
REMARK  125  A    between atoms: _292  and  _294
REMARK  126  A    between atoms: _294  and  _295
REMARK  127  A    between atoms: _294  and  _297
REMARK  128  A    between atoms: _297  and  _298
REMARK  129  A    between atoms: _298  and  _299
REMARK  130  A    between atoms: _302  and  _304
REMARK  131  A    between atoms: _304  and  _305
REMARK  132  A    between atoms: _304  and  _307
REMARK  133  A    between atoms: _307  and  _308
REMARK  134  A    between atoms: _314  and  _316
REMARK  135  A    between atoms: _316  and  _317
REMARK  136  A    between atoms: _316  and  _319
REMARK  137  A    between atoms: _322  and  _324
REMARK  138  A    between atoms: _324  and  _325
REMARK  139  A    between atoms: _324  and  _327
REMARK  140  A    between atoms: _327  and  _328
REMARK  141  A    between atoms: _328  and  _329
REMARK  142  A    between atoms: _329  and  _330
REMARK  143  A    between atoms: _339  and  _341
REMARK  144  A    between atoms: _341  and  _342
REMARK  145  A    between atoms: _341  and  _344
REMARK  146  A    between atoms: _344  and  _345
REMARK  147  A    between atoms: _348  and  _350
REMARK  148  A    between atoms: _350  and  _351
REMARK  149  A    between atoms: _350  and  _353
REMARK  150  A    between atoms: _353  and  _354
REMARK  151  A    between atoms: _357  and  _359
REMARK  152  A    between atoms: _359  and  _360
REMARK  153  A    between atoms: _363  and  _365
REMARK  154  A    between atoms: _365  and  _366
REMARK  155  A    between atoms: _368  and  _370
REMARK  156  A    between atoms: _370  and  _371
REMARK  157  A    between atoms: _370  and  _373
REMARK  158  A    between atoms: _376  and  _378
REMARK  159  A    between atoms: _378  and  _379
REMARK  160  A    between atoms: _378  and  _381
REMARK  161  A    between atoms: _381  and  _382
REMARK  162  A    between atoms: _387  and  _388
REMARK  163  A    between atoms: _390  and  _392
REMARK  164  A    between atoms: _392  and  _393
REMARK  165  A    between atoms: _392  and  _395
REMARK  166  A    between atoms: _395  and  _396
REMARK  167  A    between atoms: _399  and  _401
REMARK  168  A    between atoms: _401  and  _402
REMARK  169  A    between atoms: _401  and  _404
REMARK  170  A    between atoms: _404  and  _405
REMARK  171  A    between atoms: _408  and  _410
REMARK  172  A    between atoms: _410  and  _411
REMARK  173  A    between atoms: _410  and  _413
REMARK  174  A    between atoms: _413  and  _414
REMARK  175  A    between atoms: _414  and  _415
REMARK  176  A    between atoms: _418  and  _420
REMARK  177  A    between atoms: _420  and  _421
REMARK  178  A    between atoms: _420  and  _423
REMARK  179  A    between atoms: _423  and  _424
REMARK  180  A    between atoms: _426  and  _428
REMARK  181  A    between atoms: _428  and  _429
REMARK  182  A    between atoms: _428  and  _431
REMARK  183  A    between atoms: _431  and  _432
REMARK  184  A    between atoms: _435  and  _437
REMARK  185  A    between atoms: _437  and  _438
REMARK  186  A    between atoms: _437  and  _440
REMARK  187  A    between atoms: _440  and  _441
REMARK  188  A    between atoms: _441  and  _442
REMARK  189  A    between atoms: _444  and  _446
REMARK  190  A    between atoms: _446  and  _447
REMARK  191  A    between atoms: _446  and  _449
REMARK  192  A    between atoms: _449  and  _450
REMARK  193  A    between atoms: _455  and  _457
REMARK  194  A    between atoms: _457  and  _458
REMARK  195  A    between atoms: _457  and  _460
REMARK  196  A    between atoms: _460  and  _461
REMARK  197  A    between atoms: _461  and  _462
REMARK  198  A    between atoms: _465  and  _467
REMARK  199  A    between atoms: _467  and  _468
REMARK  200  A    between atoms: _467  and  _470
REMARK  201  A    between atoms: _470  and  _471
REMARK  202  A    between atoms: _476  and  _477
REMARK  203  A    between atoms: _479  and  _481
REMARK  204  A    between atoms: _481  and  _482
REMARK  205  A    between atoms: _481  and  _484
REMARK  206  A    between atoms: _484  and  _485
REMARK  207  A    between atoms: _488  and  _490
REMARK  208  A    between atoms: _490  and  _491
REMARK  209  A    between atoms: _490  and  _493
REMARK  210  A    between atoms: _493  and  _494
REMARK  211  A    between atoms: _494  and  _495
REMARK  212  A    between atoms: _495  and  _496
REMARK  213  A    between atoms: _496  and  _497
REMARK  214  A    between atoms: _501  and  _503
REMARK  215  A    between atoms: _503  and  _504
REMARK  216  A    between atoms: _506  and  _508
REMARK  217  A    between atoms: _508  and  _509
REMARK  218  A    between atoms: _508  and  _511
REMARK  219  A    between atoms: _511  and  _512
REMARK  220  A    between atoms: _517  and  _518
REMARK  221  A    between atoms: _520  and  _522
REMARK  222  A    between atoms: _522  and  _523
REMARK  223  A    between atoms: _525  and  _527
REMARK  224  A    between atoms: _527  and  _528
REMARK  225  A    between atoms: _527  and  _530
REMARK  226  A    between atoms: _530  and  _531
REMARK                            x       y       z     vdW  Elec       q    Type
REMARK                         _______ _______ _______ _____ _____    ______ ____
ROOT
ATOM      1  O   HOH     1      -0.695  24.488  52.887  0.00  0.00    +0.000 OA
ENDROOT
TORSDOF 0
REMARK  Name = ../refined-set-2016/3tza/3tza_pocket.pdb
REMARK  226 active torsions:
REMARK  status: ('A' for Active; 'I' for Inactive)
REMARK    1  A    between atoms: _1  and  _3
REMARK    2  A    between atoms: _3  and  _4
REMARK    3  A    between atoms: _3  and  _6
REMARK    4  A    between atoms: _6  and  _7
REMARK    5  A    between atoms: _10  and  _12
REMARK    6  A    between atoms: _12  and  _13
REMARK    7  A    between atoms: _12  and  _15
REMARK    8  A    between atoms: _15  and  _16
REMARK    9  A    between atoms: _16  and  _17
REMARK   10  A    between atoms: _20  and  _22
REMARK   11  A    between atoms: _22  and  _23
REMARK   12  A    between atoms: _22  and  _25
REMARK   13  A    between atoms: _25  and  _26
REMARK   14  A    between atoms: _29  and  _30
REMARK   15  A    between atoms: _35  and  _37
REMARK   16  A    between atoms: _37  and  _38
REMARK   17  A    between atoms: _37  and  _40
REMARK   18  A    between atoms: _40  and  _41
REMARK   19  A    between atoms: _46  and  _47
REMARK   20  A    between atoms: _49  and  _51
REMARK   21  A    between atoms: _51  and  _52
REMARK   22  A    between atoms: _51  and  _54
REMARK   23  A    between atoms: _54  and  _55
REMARK   24  A    between atoms: _55  and  _56
REMARK   25  A    between atoms: _56  and  _57
REMARK   26  A    between atoms: _57  and  _58
REMARK   27  A    between atoms: _62  and  _64
REMARK   28  A    between atoms: _64  and  _65
REMARK   29  A    between atoms: _64  and  _67
REMARK   30  A    between atoms: _67  and  _68
REMARK   31  A    between atoms: _73  and  _74
REMARK   32  A    between atoms: _76  and  _78
REMARK   33  A    between atoms: _78  and  _79
REMARK   34  A    between atoms: _81  and  _83
REMARK   35  A    between atoms: _83  and  _84
REMARK   36  A    between atoms: _87  and  _89
REMARK   37  A    between atoms: _89  and  _90
REMARK   38  A    between atoms: _89  and  _92
REMARK   39  A    between atoms: _92  and  _93
REMARK   40  A    between atoms: _93  and  _94
REMARK   41  A    between atoms: _96  and  _98
REMARK   42  A    between atoms: _98  and  _99
REMARK   43  A    between atoms: _98  and  _101
REMARK   44  A    between atoms: _104  and  _106
REMARK   45  A    between atoms: _106  and  _107
REMARK   46  A    between atoms: _111  and  _112
REMARK   47  A    between atoms: _117  and  _119
REMARK   48  A    between atoms: _119  and  _120
REMARK   49  A    between atoms: _119  and  _122
REMARK   50  A    between atoms: _122  and  _123
REMARK   51  A    between atoms: _126  and  _128
REMARK   52  A    between atoms: _128  and  _129
REMARK   53  A    between atoms: _128  and  _131
REMARK   54  A    between atoms: _131  and  _132
REMARK   55  A    between atoms: _135  and  _137
REMARK   56  A    between atoms: _137  and  _138
REMARK   57  A    between atoms: _137  and  _140
REMARK   58  A    between atoms: _140  and  _141
REMARK   59  A    between atoms: _144  and  _146
REMARK   60  A    between atoms: _146  and  _147
REMARK   61  A    between atoms: _146  and  _149
REMARK   62  A    between atoms: _149  and  _150
REMARK   63  A    between atoms: _153  and  _155
REMARK   64  A    between atoms: _155  and  _156
REMARK   65  A    between atoms: _155  and  _158
REMARK   66  A    between atoms: _158  and  _159
REMARK   67  A    between atoms: _159  and  _160
REMARK   68  A    between atoms: _160  and  _161
REMARK   69  A    between atoms: _170  and  _172
REMARK   70  A    between atoms: _172  and  _173
REMARK   71  A    between atoms: _172  and  _175
REMARK   72  A    between atoms: _175  and  _176
REMARK   73  A    between atoms: _182  and  _184
REMARK   74  A    between atoms: _184  and  _185
REMARK   75  A    between atoms: _184  and  _187
REMARK   76  A    between atoms: _187  and  _188
REMARK   77  A    between atoms: _191  and  _193
REMARK   78  A    between atoms: _193  and  _194
REMARK   79  A    between atoms: _196  and  _198
REMARK   80  A    between atoms: _198  and  _199
REMARK   81  A    between atoms: _198  and  _201
REMARK   82  A    between atoms: _201  and  _202
REMARK   83  A    between atoms: _205  and  _207
REMARK   84  A    between atoms: _207  and  _208
REMARK   85  A    between atoms: _207  and  _210
REMARK   86  A    between atoms: _210  and  _211
REMARK   87  A    between atoms: _213  and  _215
REMARK   88  A    between atoms: _215  and  _216
REMARK   89  A    between atoms: _215  and  _218
REMARK   90  A    between atoms: _218  and  _219
REMARK   91  A    between atoms: _219  and  _220
REMARK   92  A    between atoms: _222  and  _224
REMARK   93  A    between atoms: _224  and  _225
REMARK   94  A    between atoms: _224  and  _227
REMARK   95  A    between atoms: _227  and  _228
REMARK   96  A    between atoms: _231  and  _233
REMARK   97  A    between atoms: _233  and  _234
REMARK   98  A    between atoms: _233  and  _236
REMARK   99  A    between atoms: _236  and  _237
REMARK  100  A    between atoms: _240  and  _242
REMARK  101  A    between atoms: _242  and  _243
REMARK  102  A    between atoms: _242  and  _245
REMARK  103  A    between atoms: _245  and  _246
REMARK  104  A    between atoms: _249  and  _251
REMARK  105  A    between atoms: _251  and  _252
REMARK  106  A    between atoms: _251  and  _254
REMARK  107  A    between atoms: _254  and  _255
REMARK  108  A    between atoms: _257  and  _259
REMARK  109  A    between atoms: _259  and  _260
REMARK  110  A    between atoms: _262  and  _264
REMARK  111  A    between atoms: _264  and  _265
REMARK  112  A    between atoms: _264  and  _267
REMARK  113  A    between atoms: _267  and  _268
REMARK  114  A    between atoms: _270  and  _272
REMARK  115  A    between atoms: _272  and  _273
REMARK  116  A    between atoms: _272  and  _275
REMARK  117  A    between atoms: _275  and  _276
REMARK  118  A    between atoms: _279  and  _281
REMARK  119  A    between atoms: _281  and  _282
REMARK  120  A    between atoms: _281  and  _284
REMARK  121  A    between atoms: _284  and  _285
REMARK  122  A    between atoms: _285  and  _286
REMARK  123  A    between atoms: _286  and  _287
REMARK  124  A    between atoms: _287  and  _288
REMARK  125  A    between atoms: _292  and  _294
REMARK  126  A    between atoms: _294  and  _295
REMARK  127  A    between atoms: _294  and  _297
REMARK  128  A    between atoms: _297  and  _298
REMARK  129  A    between atoms: _298  and  _299
REMARK  130  A    between atoms: _302  and  _304
REMARK  131  A    between atoms: _304  and  _305
REMARK  132  A    between atoms: _304  and  _307
REMARK  133  A    between atoms: _307  and  _308
REMARK  134  A    between atoms: _314  and  _316
REMARK  135  A    between atoms: _316  and  _317
REMARK  136  A    between atoms: _316  and  _319
REMARK  137  A    between atoms: _322  and  _324
REMARK  138  A    between atoms: _324  and  _325
REMARK  139  A    between atoms: _324  and  _327
REMARK  140  A    between atoms: _327  and  _328
REMARK  141  A    between atoms: _328  and  _329
REMARK  142  A    between atoms: _329  and  _330
REMARK  143  A    between atoms: _339  and  _341
REMARK  144  A    between atoms: _341  and  _342
REMARK  145  A    between atoms: _341  and  _344
REMARK  146  A    between atoms: _344  and  _345
REMARK  147  A    between atoms: _348  and  _350
REMARK  148  A    between atoms: _350  and  _351
REMARK  149  A    between atoms: _350  and  _353
REMARK  150  A    between atoms: _353  and  _354
REMARK  151  A    between atoms: _357  and  _359
REMARK  152  A    between atoms: _359  and  _360
REMARK  153  A    between atoms: _363  and  _365
REMARK  154  A    between atoms: _365  and  _366
REMARK  155  A    between atoms: _368  and  _370
REMARK  156  A    between atoms: _370  and  _371
REMARK  157  A    between atoms: _370  and  _373
REMARK  158  A    between atoms: _376  and  _378
REMARK  159  A    between atoms: _378  and  _379
REMARK  160  A    between atoms: _378  and  _381
REMARK  161  A    between atoms: _381  and  _382
REMARK  162  A    between atoms: _387  and  _388
REMARK  163  A    between atoms: _390  and  _392
REMARK  164  A    between atoms: _392  and  _393
REMARK  165  A    between atoms: _392  and  _395
REMARK  166  A    between atoms: _395  and  _396
REMARK  167  A    between atoms: _399  and  _401
REMARK  168  A    between atoms: _401  and  _402
REMARK  169  A    between atoms: _401  and  _404
REMARK  170  A    between atoms: _404  and  _405
REMARK  171  A    between atoms: _408  and  _410
REMARK  172  A    between atoms: _410  and  _411
REMARK  173  A    between atoms: _410  and  _413
REMARK  174  A    between atoms: _413  and  _414
REMARK  175  A    between atoms: _414  and  _415
REMARK  176  A    between atoms: _418  and  _420
REMARK  177  A    between atoms: _420  and  _421
REMARK  178  A    between atoms: _420  and  _423
REMARK  179  A    between atoms: _423  and  _424
REMARK  180  A    between atoms: _426  and  _428
REMARK  181  A    between atoms: _428  and  _429
REMARK  182  A    between atoms: _428  and  _431
REMARK  183  A    between atoms: _431  and  _432
REMARK  184  A    between atoms: _435  and  _437
REMARK  185  A    between atoms: _437  and  _438
REMARK  186  A    between atoms: _437  and  _440
REMARK  187  A    between atoms: _440  and  _441
REMARK  188  A    between atoms: _441  and  _442
REMARK  189  A    between atoms: _444  and  _446
REMARK  190  A    between atoms: _446  and  _447
REMARK  191  A    between atoms: _446  and  _449
REMARK  192  A    between atoms: _449  and  _450
REMARK  193  A    between atoms: _455  and  _457
REMARK  194  A    between atoms: _457  and  _458
REMARK  195  A    between atoms: _457  and  _460
REMARK  196  A    between atoms: _460  and  _461
REMARK  197  A    between atoms: _461  and  _462
REMARK  198  A    between atoms: _465  and  _467
REMARK  199  A    between atoms: _467  and  _468
REMARK  200  A    between atoms: _467  and  _470
REMARK  201  A    between atoms: _470  and  _471
REMARK  202  A    between atoms: _476  and  _477
REMARK  203  A    between atoms: _479  and  _481
REMARK  204  A    between atoms: _481  and  _482
REMARK  205  A    between atoms: _481  and  _484
REMARK  206  A    between atoms: _484  and  _485
REMARK  207  A    between atoms: _488  and  _490
REMARK  208  A    between atoms: _490  and  _491
REMARK  209  A    between atoms: _490  and  _493
REMARK  210  A    between atoms: _493  and  _494
REMARK  211  A    between atoms: _494  and  _495
REMARK  212  A    between atoms: _495  and  _496
REMARK  213  A    between atoms: _496  and  _497
REMARK  214  A    between atoms: _501  and  _503
REMARK  215  A    between atoms: _503  and  _504
REMARK  216  A    between atoms: _506  and  _508
REMARK  217  A    between atoms: _508  and  _509
REMARK  218  A    between atoms: _508  and  _511
REMARK  219  A    between atoms: _511  and  _512
REMARK  220  A    between atoms: _517  and  _518
REMARK  221  A    between atoms: _520  and  _522
REMARK  222  A    between atoms: _522  and  _523
REMARK  223  A    between atoms: _525  and  _527
REMARK  224  A    between atoms: _527  and  _528
REMARK  225  A    between atoms: _527  and  _530
REMARK  226  A    between atoms: _530  and  _531
REMARK                            x       y       z     vdW  Elec       q    Type
REMARK                         _______ _______ _______ _____ _____    ______ ____
ROOT
ATOM      1  O   HOH     1       3.439  25.850  51.210  0.00  0.00    +0.000 OA
ENDROOT
TORSDOF 0
REMARK  Name = ../refined-set-2016/3tza/3tza_pocket.pdb
REMARK  226 active torsions:
REMARK  status: ('A' for Active; 'I' for Inactive)
REMARK    1  A    between atoms: _1  and  _3
REMARK    2  A    between atoms: _3  and  _4
REMARK    3  A    between atoms: _3  and  _6
REMARK    4  A    between atoms: _6  and  _7
REMARK    5  A    between atoms: _10  and  _12
REMARK    6  A    between atoms: _12  and  _13
REMARK    7  A    between atoms: _12  and  _15
REMARK    8  A    between atoms: _15  and  _16
REMARK    9  A    between atoms: _16  and  _17
REMARK   10  A    between atoms: _20  and  _22
REMARK   11  A    between atoms: _22  and  _23
REMARK   12  A    between atoms: _22  and  _25
REMARK   13  A    between atoms: _25  and  _26
REMARK   14  A    between atoms: _29  and  _30
REMARK   15  A    between atoms: _35  and  _37
REMARK   16  A    between atoms: _37  and  _38
REMARK   17  A    between atoms: _37  and  _40
REMARK   18  A    between atoms: _40  and  _41
REMARK   19  A    between atoms: _46  and  _47
REMARK   20  A    between atoms: _49  and  _51
REMARK   21  A    between atoms: _51  and  _52
REMARK   22  A    between atoms: _51  and  _54
REMARK   23  A    between atoms: _54  and  _55
REMARK   24  A    between atoms: _55  and  _56
REMARK   25  A    between atoms: _56  and  _57
REMARK   26  A    between atoms: _57  and  _58
REMARK   27  A    between atoms: _62  and  _64
REMARK   28  A    between atoms: _64  and  _65
REMARK   29  A    between atoms: _64  and  _67
REMARK   30  A    between atoms: _67  and  _68
REMARK   31  A    between atoms: _73  and  _74
REMARK   32  A    between atoms: _76  and  _78
REMARK   33  A    between atoms: _78  and  _79
REMARK   34  A    between atoms: _81  and  _83
REMARK   35  A    between atoms: _83  and  _84
REMARK   36  A    between atoms: _87  and  _89
REMARK   37  A    between atoms: _89  and  _90
REMARK   38  A    between atoms: _89  and  _92
REMARK   39  A    between atoms: _92  and  _93
REMARK   40  A    between atoms: _93  and  _94
REMARK   41  A    between atoms: _96  and  _98
REMARK   42  A    between atoms: _98  and  _99
REMARK   43  A    between atoms: _98  and  _101
REMARK   44  A    between atoms: _104  and  _106
REMARK   45  A    between atoms: _106  and  _107
REMARK   46  A    between atoms: _111  and  _112
REMARK   47  A    between atoms: _117  and  _119
REMARK   48  A    between atoms: _119  and  _120
REMARK   49  A    between atoms: _119  and  _122
REMARK   50  A    between atoms: _122  and  _123
REMARK   51  A    between atoms: _126  and  _128
REMARK   52  A    between atoms: _128  and  _129
REMARK   53  A    between atoms: _128  and  _131
REMARK   54  A    between atoms: _131  and  _132
REMARK   55  A    between atoms: _135  and  _137
REMARK   56  A    between atoms: _137  and  _138
REMARK   57  A    between atoms: _137  and  _140
REMARK   58  A    between atoms: _140  and  _141
REMARK   59  A    between atoms: _144  and  _146
REMARK   60  A    between atoms: _146  and  _147
REMARK   61  A    between atoms: _146  and  _149
REMARK   62  A    between atoms: _149  and  _150
REMARK   63  A    between atoms: _153  and  _155
REMARK   64  A    between atoms: _155  and  _156
REMARK   65  A    between atoms: _155  and  _158
REMARK   66  A    between atoms: _158  and  _159
REMARK   67  A    between atoms: _159  and  _160
REMARK   68  A    between atoms: _160  and  _161
REMARK   69  A    between atoms: _170  and  _172
REMARK   70  A    between atoms: _172  and  _173
REMARK   71  A    between atoms: _172  and  _175
REMARK   72  A    between atoms: _175  and  _176
REMARK   73  A    between atoms: _182  and  _184
REMARK   74  A    between atoms: _184  and  _185
REMARK   75  A    between atoms: _184  and  _187
REMARK   76  A    between atoms: _187  and  _188
REMARK   77  A    between atoms: _191  and  _193
REMARK   78  A    between atoms: _193  and  _194
REMARK   79  A    between atoms: _196  and  _198
REMARK   80  A    between atoms: _198  and  _199
REMARK   81  A    between atoms: _198  and  _201
REMARK   82  A    between atoms: _201  and  _202
REMARK   83  A    between atoms: _205  and  _207
REMARK   84  A    between atoms: _207  and  _208
REMARK   85  A    between atoms: _207  and  _210
REMARK   86  A    between atoms: _210  and  _211
REMARK   87  A    between atoms: _213  and  _215
REMARK   88  A    between atoms: _215  and  _216
REMARK   89  A    between atoms: _215  and  _218
REMARK   90  A    between atoms: _218  and  _219
REMARK   91  A    between atoms: _219  and  _220
REMARK   92  A    between atoms: _222  and  _224
REMARK   93  A    between atoms: _224  and  _225
REMARK   94  A    between atoms: _224  and  _227
REMARK   95  A    between atoms: _227  and  _228
REMARK   96  A    between atoms: _231  and  _233
REMARK   97  A    between atoms: _233  and  _234
REMARK   98  A    between atoms: _233  and  _236
REMARK   99  A    between atoms: _236  and  _237
REMARK  100  A    between atoms: _240  and  _242
REMARK  101  A    between atoms: _242  and  _243
REMARK  102  A    between atoms: _242  and  _245
REMARK  103  A    between atoms: _245  and  _246
REMARK  104  A    between atoms: _249  and  _251
REMARK  105  A    between atoms: _251  and  _252
REMARK  106  A    between atoms: _251  and  _254
REMARK  107  A    between atoms: _254  and  _255
REMARK  108  A    between atoms: _257  and  _259
REMARK  109  A    between atoms: _259  and  _260
REMARK  110  A    between atoms: _262  and  _264
REMARK  111  A    between atoms: _264  and  _265
REMARK  112  A    between atoms: _264  and  _267
REMARK  113  A    between atoms: _267  and  _268
REMARK  114  A    between atoms: _270  and  _272
REMARK  115  A    between atoms: _272  and  _273
REMARK  116  A    between atoms: _272  and  _275
REMARK  117  A    between atoms: _275  and  _276
REMARK  118  A    between atoms: _279  and  _281
REMARK  119  A    between atoms: _281  and  _282
REMARK  120  A    between atoms: _281  and  _284
REMARK  121  A    between atoms: _284  and  _285
REMARK  122  A    between atoms: _285  and  _286
REMARK  123  A    between atoms: _286  and  _287
REMARK  124  A    between atoms: _287  and  _288
REMARK  125  A    between atoms: _292  and  _294
REMARK  126  A    between atoms: _294  and  _295
REMARK  127  A    between atoms: _294  and  _297
REMARK  128  A    between atoms: _297  and  _298
REMARK  129  A    between atoms: _298  and  _299
REMARK  130  A    between atoms: _302  and  _304
REMARK  131  A    between atoms: _304  and  _305
REMARK  132  A    between atoms: _304  and  _307
REMARK  133  A    between atoms: _307  and  _308
REMARK  134  A    between atoms: _314  and  _316
REMARK  135  A    between atoms: _316  and  _317
REMARK  136  A    between atoms: _316  and  _319
REMARK  137  A    between atoms: _322  and  _324
REMARK  138  A    between atoms: _324  and  _325
REMARK  139  A    between atoms: _324  and  _327
REMARK  140  A    between atoms: _327  and  _328
REMARK  141  A    between atoms: _328  and  _329
REMARK  142  A    between atoms: _329  and  _330
REMARK  143  A    between atoms: _339  and  _341
REMARK  144  A    between atoms: _341  and  _342
REMARK  145  A    between atoms: _341  and  _344
REMARK  146  A    between atoms: _344  and  _345
REMARK  147  A    between atoms: _348  and  _350
REMARK  148  A    between atoms: _350  and  _351
REMARK  149  A    between atoms: _350  and  _353
REMARK  150  A    between atoms: _353  and  _354
REMARK  151  A    between atoms: _357  and  _359
REMARK  152  A    between atoms: _359  and  _360
REMARK  153  A    between atoms: _363  and  _365
REMARK  154  A    between atoms: _365  and  _366
REMARK  155  A    between atoms: _368  and  _370
REMARK  156  A    between atoms: _370  and  _371
REMARK  157  A    between atoms: _370  and  _373
REMARK  158  A    between atoms: _376  and  _378
REMARK  159  A    between atoms: _378  and  _379
REMARK  160  A    between atoms: _378  and  _381
REMARK  161  A    between atoms: _381  and  _382
REMARK  162  A    between atoms: _387  and  _388
REMARK  163  A    between atoms: _390  and  _392
REMARK  164  A    between atoms: _392  and  _393
REMARK  165  A    between atoms: _392  and  _395
REMARK  166  A    between atoms: _395  and  _396
REMARK  167  A    between atoms: _399  and  _401
REMARK  168  A    between atoms: _401  and  _402
REMARK  169  A    between atoms: _401  and  _404
REMARK  170  A    between atoms: _404  and  _405
REMARK  171  A    between atoms: _408  and  _410
REMARK  172  A    between atoms: _410  and  _411
REMARK  173  A    between atoms: _410  and  _413
REMARK  174  A    between atoms: _413  and  _414
REMARK  175  A    between atoms: _414  and  _415
REMARK  176  A    between atoms: _418  and  _420
REMARK  177  A    between atoms: _420  and  _421
REMARK  178  A    between atoms: _420  and  _423
REMARK  179  A    between atoms: _423  and  _424
REMARK  180  A    between atoms: _426  and  _428
REMARK  181  A    between atoms: _428  and  _429
REMARK  182  A    between atoms: _428  and  _431
REMARK  183  A    between atoms: _431  and  _432
REMARK  184  A    between atoms: _435  and  _437
REMARK  185  A    between atoms: _437  and  _438
REMARK  186  A    between atoms: _437  and  _440
REMARK  187  A    between atoms: _440  and  _441
REMARK  188  A    between atoms: _441  and  _442
REMARK  189  A    between atoms: _444  and  _446
REMARK  190  A    between atoms: _446  and  _447
REMARK  191  A    between atoms: _446  and  _449
REMARK  192  A    between atoms: _449  and  _450
REMARK  193  A    between atoms: _455  and  _457
REMARK  194  A    between atoms: _457  and  _458
REMARK  195  A    between atoms: _457  and  _460
REMARK  196  A    between atoms: _460  and  _461
REMARK  197  A    between atoms: _461  and  _462
REMARK  198  A    between atoms: _465  and  _467
REMARK  199  A    between atoms: _467  and  _468
REMARK  200  A    between atoms: _467  and  _470
REMARK  201  A    between atoms: _470  and  _471
REMARK  202  A    between atoms: _476  and  _477
REMARK  203  A    between atoms: _479  and  _481
REMARK  204  A    between atoms: _481  and  _482
REMARK  205  A    between atoms: _481  and  _484
REMARK  206  A    between atoms: _484  and  _485
REMARK  207  A    between atoms: _488  and  _490
REMARK  208  A    between atoms: _490  and  _491
REMARK  209  A    between atoms: _490  and  _493
REMARK  210  A    between atoms: _493  and  _494
REMARK  211  A    between atoms: _494  and  _495
REMARK  212  A    between atoms: _495  and  _496
REMARK  213  A    between atoms: _496  and  _497
REMARK  214  A    between atoms: _501  and  _503
REMARK  215  A    between atoms: _503  and  _504
REMARK  216  A    between atoms: _506  and  _508
REMARK  217  A    between atoms: _508  and  _509
REMARK  218  A    between atoms: _508  and  _511
REMARK  219  A    between atoms: _511  and  _512
REMARK  220  A    between atoms: _517  and  _518
REMARK  221  A    between atoms: _520  and  _522
REMARK  222  A    between atoms: _522  and  _523
REMARK  223  A    between atoms: _525  and  _527
REMARK  224  A    between atoms: _527  and  _528
REMARK  225  A    between atoms: _527  and  _530
REMARK  226  A    between atoms: _530  and  _531
REMARK                            x       y       z     vdW  Elec       q    Type
REMARK                         _______ _______ _______ _____ _____    ______ ____
ROOT
ATOM      1  O   HOH     1      -8.509  27.293  52.800  0.00  0.00    +0.000 OA
ENDROOT
TORSDOF 0
REMARK  Name = ../refined-set-2016/3tza/3tza_pocket.pdb
REMARK  226 active torsions:
REMARK  status: ('A' for Active; 'I' for Inactive)
REMARK    1  A    between atoms: _1  and  _3
REMARK    2  A    between atoms: _3  and  _4
REMARK    3  A    between atoms: _3  and  _6
REMARK    4  A    between atoms: _6  and  _7
REMARK    5  A    between atoms: _10  and  _12
REMARK    6  A    between atoms: _12  and  _13
REMARK    7  A    between atoms: _12  and  _15
REMARK    8  A    between atoms: _15  and  _16
REMARK    9  A    between atoms: _16  and  _17
REMARK   10  A    between atoms: _20  and  _22
REMARK   11  A    between atoms: _22  and  _23
REMARK   12  A    between atoms: _22  and  _25
REMARK   13  A    between atoms: _25  and  _26
REMARK   14  A    between atoms: _29  and  _30
REMARK   15  A    between atoms: _35  and  _37
REMARK   16  A    between atoms: _37  and  _38
REMARK   17  A    between atoms: _37  and  _40
REMARK   18  A    between atoms: _40  and  _41
REMARK   19  A    between atoms: _46  and  _47
REMARK   20  A    between atoms: _49  and  _51
REMARK   21  A    between atoms: _51  and  _52
REMARK   22  A    between atoms: _51  and  _54
REMARK   23  A    between atoms: _54  and  _55
REMARK   24  A    between atoms: _55  and  _56
REMARK   25  A    between atoms: _56  and  _57
REMARK   26  A    between atoms: _57  and  _58
REMARK   27  A    between atoms: _62  and  _64
REMARK   28  A    between atoms: _64  and  _65
REMARK   29  A    between atoms: _64  and  _67
REMARK   30  A    between atoms: _67  and  _68
REMARK   31  A    between atoms: _73  and  _74
REMARK   32  A    between atoms: _76  and  _78
REMARK   33  A    between atoms: _78  and  _79
REMARK   34  A    between atoms: _81  and  _83
REMARK   35  A    between atoms: _83  and  _84
REMARK   36  A    between atoms: _87  and  _89
REMARK   37  A    between atoms: _89  and  _90
REMARK   38  A    between atoms: _89  and  _92
REMARK   39  A    between atoms: _92  and  _93
REMARK   40  A    between atoms: _93  and  _94
REMARK   41  A    between atoms: _96  and  _98
REMARK   42  A    between atoms: _98  and  _99
REMARK   43  A    between atoms: _98  and  _101
REMARK   44  A    between atoms: _104  and  _106
REMARK   45  A    between atoms: _106  and  _107
REMARK   46  A    between atoms: _111  and  _112
REMARK   47  A    between atoms: _117  and  _119
REMARK   48  A    between atoms: _119  and  _120
REMARK   49  A    between atoms: _119  and  _122
REMARK   50  A    between atoms: _122  and  _123
REMARK   51  A    between atoms: _126  and  _128
REMARK   52  A    between atoms: _128  and  _129
REMARK   53  A    between atoms: _128  and  _131
REMARK   54  A    between atoms: _131  and  _132
REMARK   55  A    between atoms: _135  and  _137
REMARK   56  A    between atoms: _137  and  _138
REMARK   57  A    between atoms: _137  and  _140
REMARK   58  A    between atoms: _140  and  _141
REMARK   59  A    between atoms: _144  and  _146
REMARK   60  A    between atoms: _146  and  _147
REMARK   61  A    between atoms: _146  and  _149
REMARK   62  A    between atoms: _149  and  _150
REMARK   63  A    between atoms: _153  and  _155
REMARK   64  A    between atoms: _155  and  _156
REMARK   65  A    between atoms: _155  and  _158
REMARK   66  A    between atoms: _158  and  _159
REMARK   67  A    between atoms: _159  and  _160
REMARK   68  A    between atoms: _160  and  _161
REMARK   69  A    between atoms: _170  and  _172
REMARK   70  A    between atoms: _172  and  _173
REMARK   71  A    between atoms: _172  and  _175
REMARK   72  A    between atoms: _175  and  _176
REMARK   73  A    between atoms: _182  and  _184
REMARK   74  A    between atoms: _184  and  _185
REMARK   75  A    between atoms: _184  and  _187
REMARK   76  A    between atoms: _187  and  _188
REMARK   77  A    between atoms: _191  and  _193
REMARK   78  A    between atoms: _193  and  _194
REMARK   79  A    between atoms: _196  and  _198
REMARK   80  A    between atoms: _198  and  _199
REMARK   81  A    between atoms: _198  and  _201
REMARK   82  A    between atoms: _201  and  _202
REMARK   83  A    between atoms: _205  and  _207
REMARK   84  A    between atoms: _207  and  _208
REMARK   85  A    between atoms: _207  and  _210
REMARK   86  A    between atoms: _210  and  _211
REMARK   87  A    between atoms: _213  and  _215
REMARK   88  A    between atoms: _215  and  _216
REMARK   89  A    between atoms: _215  and  _218
REMARK   90  A    between atoms: _218  and  _219
REMARK   91  A    between atoms: _219  and  _220
REMARK   92  A    between atoms: _222  and  _224
REMARK   93  A    between atoms: _224  and  _225
REMARK   94  A    between atoms: _224  and  _227
REMARK   95  A    between atoms: _227  and  _228
REMARK   96  A    between atoms: _231  and  _233
REMARK   97  A    between atoms: _233  and  _234
REMARK   98  A    between atoms: _233  and  _236
REMARK   99  A    between atoms: _236  and  _237
REMARK  100  A    between atoms: _240  and  _242
REMARK  101  A    between atoms: _242  and  _243
REMARK  102  A    between atoms: _242  and  _245
REMARK  103  A    between atoms: _245  and  _246
REMARK  104  A    between atoms: _249  and  _251
REMARK  105  A    between atoms: _251  and  _252
REMARK  106  A    between atoms: _251  and  _254
REMARK  107  A    between atoms: _254  and  _255
REMARK  108  A    between atoms: _257  and  _259
REMARK  109  A    between atoms: _259  and  _260
REMARK  110  A    between atoms: _262  and  _264
REMARK  111  A    between atoms: _264  and  _265
REMARK  112  A    between atoms: _264  and  _267
REMARK  113  A    between atoms: _267  and  _268
REMARK  114  A    between atoms: _270  and  _272
REMARK  115  A    between atoms: _272  and  _273
REMARK  116  A    between atoms: _272  and  _275
REMARK  117  A    between atoms: _275  and  _276
REMARK  118  A    between atoms: _279  and  _281
REMARK  119  A    between atoms: _281  and  _282
REMARK  120  A    between atoms: _281  and  _284
REMARK  121  A    between atoms: _284  and  _285
REMARK  122  A    between atoms: _285  and  _286
REMARK  123  A    between atoms: _286  and  _287
REMARK  124  A    between atoms: _287  and  _288
REMARK  125  A    between atoms: _292  and  _294
REMARK  126  A    between atoms: _294  and  _295
REMARK  127  A    between atoms: _294  and  _297
REMARK  128  A    between atoms: _297  and  _298
REMARK  129  A    between atoms: _298  and  _299
REMARK  130  A    between atoms: _302  and  _304
REMARK  131  A    between atoms: _304  and  _305
REMARK  132  A    between atoms: _304  and  _307
REMARK  133  A    between atoms: _307  and  _308
REMARK  134  A    between atoms: _314  and  _316
REMARK  135  A    between atoms: _316  and  _317
REMARK  136  A    between atoms: _316  and  _319
REMARK  137  A    between atoms: _322  and  _324
REMARK  138  A    between atoms: _324  and  _325
REMARK  139  A    between atoms: _324  and  _327
REMARK  140  A    between atoms: _327  and  _328
REMARK  141  A    between atoms: _328  and  _329
REMARK  142  A    between atoms: _329  and  _330
REMARK  143  A    between atoms: _339  and  _341
REMARK  144  A    between atoms: _341  and  _342
REMARK  145  A    between atoms: _341  and  _344
REMARK  146  A    between atoms: _344  and  _345
REMARK  147  A    between atoms: _348  and  _350
REMARK  148  A    between atoms: _350  and  _351
REMARK  149  A    between atoms: _350  and  _353
REMARK  150  A    between atoms: _353  and  _354
REMARK  151  A    between atoms: _357  and  _359
REMARK  152  A    between atoms: _359  and  _360
REMARK  153  A    between atoms: _363  and  _365
REMARK  154  A    between atoms: _365  and  _366
REMARK  155  A    between atoms: _368  and  _370
REMARK  156  A    between atoms: _370  and  _371
REMARK  157  A    between atoms: _370  and  _373
REMARK  158  A    between atoms: _376  and  _378
REMARK  159  A    between atoms: _378  and  _379
REMARK  160  A    between atoms: _378  and  _381
REMARK  161  A    between atoms: _381  and  _382
REMARK  162  A    between atoms: _387  and  _388
REMARK  163  A    between atoms: _390  and  _392
REMARK  164  A    between atoms: _392  and  _393
REMARK  165  A    between atoms: _392  and  _395
REMARK  166  A    between atoms: _395  and  _396
REMARK  167  A    between atoms: _399  and  _401
REMARK  168  A    between atoms: _401  and  _402
REMARK  169  A    between atoms: _401  and  _404
REMARK  170  A    between atoms: _404  and  _405
REMARK  171  A    between atoms: _408  and  _410
REMARK  172  A    between atoms: _410  and  _411
REMARK  173  A    between atoms: _410  and  _413
REMARK  174  A    between atoms: _413  and  _414
REMARK  175  A    between atoms: _414  and  _415
REMARK  176  A    between atoms: _418  and  _420
REMARK  177  A    between atoms: _420  and  _421
REMARK  178  A    between atoms: _420  and  _423
REMARK  179  A    between atoms: _423  and  _424
REMARK  180  A    between atoms: _426  and  _428
REMARK  181  A    between atoms: _428  and  _429
REMARK  182  A    between atoms: _428  and  _431
REMARK  183  A    between atoms: _431  and  _432
REMARK  184  A    between atoms: _435  and  _437
REMARK  185  A    between atoms: _437  and  _438
REMARK  186  A    between atoms: _437  and  _440
REMARK  187  A    between atoms: _440  and  _441
REMARK  188  A    between atoms: _441  and  _442
REMARK  189  A    between atoms: _444  and  _446
REMARK  190  A    between atoms: _446  and  _447
REMARK  191  A    between atoms: _446  and  _449
REMARK  192  A    between atoms: _449  and  _450
REMARK  193  A    between atoms: _455  and  _457
REMARK  194  A    between atoms: _457  and  _458
REMARK  195  A    between atoms: _457  and  _460
REMARK  196  A    between atoms: _460  and  _461
REMARK  197  A    between atoms: _461  and  _462
REMARK  198  A    between atoms: _465  and  _467
REMARK  199  A    between atoms: _467  and  _468
REMARK  200  A    between atoms: _467  and  _470
REMARK  201  A    between atoms: _470  and  _471
REMARK  202  A    between atoms: _476  and  _477
REMARK  203  A    between atoms: _479  and  _481
REMARK  204  A    between atoms: _481  and  _482
REMARK  205  A    between atoms: _481  and  _484
REMARK  206  A    between atoms: _484  and  _485
REMARK  207  A    between atoms: _488  and  _490
REMARK  208  A    between atoms: _490  and  _491
REMARK  209  A    between atoms: _490  and  _493
REMARK  210  A    between atoms: _493  and  _494
REMARK  211  A    between atoms: _494  and  _495
REMARK  212  A    between atoms: _495  and  _496
REMARK  213  A    between atoms: _496  and  _497
REMARK  214  A    between atoms: _501  and  _503
REMARK  215  A    between atoms: _503  and  _504
REMARK  216  A    between atoms: _506  and  _508
REMARK  217  A    between atoms: _508  and  _509
REMARK  218  A    between atoms: _508  and  _511
REMARK  219  A    between atoms: _511  and  _512
REMARK  220  A    between atoms: _517  and  _518
REMARK  221  A    between atoms: _520  and  _522
REMARK  222  A    between atoms: _522  and  _523
REMARK  223  A    between atoms: _525  and  _527
REMARK  224  A    between atoms: _527  and  _528
REMARK  225  A    between atoms: _527  and  _530
REMARK  226  A    between atoms: _530  and  _531
REMARK                            x       y       z     vdW  Elec       q    Type
REMARK                         _______ _______ _______ _____ _____    ______ ____
ROOT
ATOM      1  O   HOH     1      -1.642  17.441  54.234  0.00  0.00    +0.000 OA
ENDROOT
TORSDOF 0
REMARK  Name = ../refined-set-2016/3tza/3tza_pocket.pdb
REMARK  226 active torsions:
REMARK  status: ('A' for Active; 'I' for Inactive)
REMARK    1  A    between atoms: _1  and  _3
REMARK    2  A    between atoms: _3  and  _4
REMARK    3  A    between atoms: _3  and  _6
REMARK    4  A    between atoms: _6  and  _7
REMARK    5  A    between atoms: _10  and  _12
REMARK    6  A    between atoms: _12  and  _13
REMARK    7  A    between atoms: _12  and  _15
REMARK    8  A    between atoms: _15  and  _16
REMARK    9  A    between atoms: _16  and  _17
REMARK   10  A    between atoms: _20  and  _22
REMARK   11  A    between atoms: _22  and  _23
REMARK   12  A    between atoms: _22  and  _25
REMARK   13  A    between atoms: _25  and  _26
REMARK   14  A    between atoms: _29  and  _30
REMARK   15  A    between atoms: _35  and  _37
REMARK   16  A    between atoms: _37  and  _38
REMARK   17  A    between atoms: _37  and  _40
REMARK   18  A    between atoms: _40  and  _41
REMARK   19  A    between atoms: _46  and  _47
REMARK   20  A    between atoms: _49  and  _51
REMARK   21  A    between atoms: _51  and  _52
REMARK   22  A    between atoms: _51  and  _54
REMARK   23  A    between atoms: _54  and  _55
REMARK   24  A    between atoms: _55  and  _56
REMARK   25  A    between atoms: _56  and  _57
REMARK   26  A    between atoms: _57  and  _58
REMARK   27  A    between atoms: _62  and  _64
REMARK   28  A    between atoms: _64  and  _65
REMARK   29  A    between atoms: _64  and  _67
REMARK   30  A    between atoms: _67  and  _68
REMARK   31  A    between atoms: _73  and  _74
REMARK   32  A    between atoms: _76  and  _78
REMARK   33  A    between atoms: _78  and  _79
REMARK   34  A    between atoms: _81  and  _83
REMARK   35  A    between atoms: _83  and  _84
REMARK   36  A    between atoms: _87  and  _89
REMARK   37  A    between atoms: _89  and  _90
REMARK   38  A    between atoms: _89  and  _92
REMARK   39  A    between atoms: _92  and  _93
REMARK   40  A    between atoms: _93  and  _94
REMARK   41  A    between atoms: _96  and  _98
REMARK   42  A    between atoms: _98  and  _99
REMARK   43  A    between atoms: _98  and  _101
REMARK   44  A    between atoms: _104  and  _106
REMARK   45  A    between atoms: _106  and  _107
REMARK   46  A    between atoms: _111  and  _112
REMARK   47  A    between atoms: _117  and  _119
REMARK   48  A    between atoms: _119  and  _120
REMARK   49  A    between atoms: _119  and  _122
REMARK   50  A    between atoms: _122  and  _123
REMARK   51  A    between atoms: _126  and  _128
REMARK   52  A    between atoms: _128  and  _129
REMARK   53  A    between atoms: _128  and  _131
REMARK   54  A    between atoms: _131  and  _132
REMARK   55  A    between atoms: _135  and  _137
REMARK   56  A    between atoms: _137  and  _138
REMARK   57  A    between atoms: _137  and  _140
REMARK   58  A    between atoms: _140  and  _141
REMARK   59  A    between atoms: _144  and  _146
REMARK   60  A    between atoms: _146  and  _147
REMARK   61  A    between atoms: _146  and  _149
REMARK   62  A    between atoms: _149  and  _150
REMARK   63  A    between atoms: _153  and  _155
REMARK   64  A    between atoms: _155  and  _156
REMARK   65  A    between atoms: _155  and  _158
REMARK   66  A    between atoms: _158  and  _159
REMARK   67  A    between atoms: _159  and  _160
REMARK   68  A    between atoms: _160  and  _161
REMARK   69  A    between atoms: _170  and  _172
REMARK   70  A    between atoms: _172  and  _173
REMARK   71  A    between atoms: _172  and  _175
REMARK   72  A    between atoms: _175  and  _176
REMARK   73  A    between atoms: _182  and  _184
REMARK   74  A    between atoms: _184  and  _185
REMARK   75  A    between atoms: _184  and  _187
REMARK   76  A    between atoms: _187  and  _188
REMARK   77  A    between atoms: _191  and  _193
REMARK   78  A    between atoms: _193  and  _194
REMARK   79  A    between atoms: _196  and  _198
REMARK   80  A    between atoms: _198  and  _199
REMARK   81  A    between atoms: _198  and  _201
REMARK   82  A    between atoms: _201  and  _202
REMARK   83  A    between atoms: _205  and  _207
REMARK   84  A    between atoms: _207  and  _208
REMARK   85  A    between atoms: _207  and  _210
REMARK   86  A    between atoms: _210  and  _211
REMARK   87  A    between atoms: _213  and  _215
REMARK   88  A    between atoms: _215  and  _216
REMARK   89  A    between atoms: _215  and  _218
REMARK   90  A    between atoms: _218  and  _219
REMARK   91  A    between atoms: _219  and  _220
REMARK   92  A    between atoms: _222  and  _224
REMARK   93  A    between atoms: _224  and  _225
REMARK   94  A    between atoms: _224  and  _227
REMARK   95  A    between atoms: _227  and  _228
REMARK   96  A    between atoms: _231  and  _233
REMARK   97  A    between atoms: _233  and  _234
REMARK   98  A    between atoms: _233  and  _236
REMARK   99  A    between atoms: _236  and  _237
REMARK  100  A    between atoms: _240  and  _242
REMARK  101  A    between atoms: _242  and  _243
REMARK  102  A    between atoms: _242  and  _245
REMARK  103  A    between atoms: _245  and  _246
REMARK  104  A    between atoms: _249  and  _251
REMARK  105  A    between atoms: _251  and  _252
REMARK  106  A    between atoms: _251  and  _254
REMARK  107  A    between atoms: _254  and  _255
REMARK  108  A    between atoms: _257  and  _259
REMARK  109  A    between atoms: _259  and  _260
REMARK  110  A    between atoms: _262  and  _264
REMARK  111  A    between atoms: _264  and  _265
REMARK  112  A    between atoms: _264  and  _267
REMARK  113  A    between atoms: _267  and  _268
REMARK  114  A    between atoms: _270  and  _272
REMARK  115  A    between atoms: _272  and  _273
REMARK  116  A    between atoms: _272  and  _275
REMARK  117  A    between atoms: _275  and  _276
REMARK  118  A    between atoms: _279  and  _281
REMARK  119  A    between atoms: _281  and  _282
REMARK  120  A    between atoms: _281  and  _284
REMARK  121  A    between atoms: _284  and  _285
REMARK  122  A    between atoms: _285  and  _286
REMARK  123  A    between atoms: _286  and  _287
REMARK  124  A    between atoms: _287  and  _288
REMARK  125  A    between atoms: _292  and  _294
REMARK  126  A    between atoms: _294  and  _295
REMARK  127  A    between atoms: _294  and  _297
REMARK  128  A    between atoms: _297  and  _298
REMARK  129  A    between atoms: _298  and  _299
REMARK  130  A    between atoms: _302  and  _304
REMARK  131  A    between atoms: _304  and  _305
REMARK  132  A    between atoms: _304  and  _307
REMARK  133  A    between atoms: _307  and  _308
REMARK  134  A    between atoms: _314  and  _316
REMARK  135  A    between atoms: _316  and  _317
REMARK  136  A    between atoms: _316  and  _319
REMARK  137  A    between atoms: _322  and  _324
REMARK  138  A    between atoms: _324  and  _325
REMARK  139  A    between atoms: _324  and  _327
REMARK  140  A    between atoms: _327  and  _328
REMARK  141  A    between atoms: _328  and  _329
REMARK  142  A    between atoms: _329  and  _330
REMARK  143  A    between atoms: _339  and  _341
REMARK  144  A    between atoms: _341  and  _342
REMARK  145  A    between atoms: _341  and  _344
REMARK  146  A    between atoms: _344  and  _345
REMARK  147  A    between atoms: _348  and  _350
REMARK  148  A    between atoms: _350  and  _351
REMARK  149  A    between atoms: _350  and  _353
REMARK  150  A    between atoms: _353  and  _354
REMARK  151  A    between atoms: _357  and  _359
REMARK  152  A    between atoms: _359  and  _360
REMARK  153  A    between atoms: _363  and  _365
REMARK  154  A    between atoms: _365  and  _366
REMARK  155  A    between atoms: _368  and  _370
REMARK  156  A    between atoms: _370  and  _371
REMARK  157  A    between atoms: _370  and  _373
REMARK  158  A    between atoms: _376  and  _378
REMARK  159  A    between atoms: _378  and  _379
REMARK  160  A    between atoms: _378  and  _381
REMARK  161  A    between atoms: _381  and  _382
REMARK  162  A    between atoms: _387  and  _388
REMARK  163  A    between atoms: _390  and  _392
REMARK  164  A    between atoms: _392  and  _393
REMARK  165  A    between atoms: _392  and  _395
REMARK  166  A    between atoms: _395  and  _396
REMARK  167  A    between atoms: _399  and  _401
REMARK  168  A    between atoms: _401  and  _402
REMARK  169  A    between atoms: _401  and  _404
REMARK  170  A    between atoms: _404  and  _405
REMARK  171  A    between atoms: _408  and  _410
REMARK  172  A    between atoms: _410  and  _411
REMARK  173  A    between atoms: _410  and  _413
REMARK  174  A    between atoms: _413  and  _414
REMARK  175  A    between atoms: _414  and  _415
REMARK  176  A    between atoms: _418  and  _420
REMARK  177  A    between atoms: _420  and  _421
REMARK  178  A    between atoms: _420  and  _423
REMARK  179  A    between atoms: _423  and  _424
REMARK  180  A    between atoms: _426  and  _428
REMARK  181  A    between atoms: _428  and  _429
REMARK  182  A    between atoms: _428  and  _431
REMARK  183  A    between atoms: _431  and  _432
REMARK  184  A    between atoms: _435  and  _437
REMARK  185  A    between atoms: _437  and  _438
REMARK  186  A    between atoms: _437  and  _440
REMARK  187  A    between atoms: _440  and  _441
REMARK  188  A    between atoms: _441  and  _442
REMARK  189  A    between atoms: _444  and  _446
REMARK  190  A    between atoms: _446  and  _447
REMARK  191  A    between atoms: _446  and  _449
REMARK  192  A    between atoms: _449  and  _450
REMARK  193  A    between atoms: _455  and  _457
REMARK  194  A    between atoms: _457  and  _458
REMARK  195  A    between atoms: _457  and  _460
REMARK  196  A    between atoms: _460  and  _461
REMARK  197  A    between atoms: _461  and  _462
REMARK  198  A    between atoms: _465  and  _467
REMARK  199  A    between atoms: _467  and  _468
REMARK  200  A    between atoms: _467  and  _470
REMARK  201  A    between atoms: _470  and  _471
REMARK  202  A    between atoms: _476  and  _477
REMARK  203  A    between atoms: _479  and  _481
REMARK  204  A    between atoms: _481  and  _482
REMARK  205  A    between atoms: _481  and  _484
REMARK  206  A    between atoms: _484  and  _485
REMARK  207  A    between atoms: _488  and  _490
REMARK  208  A    between atoms: _490  and  _491
REMARK  209  A    between atoms: _490  and  _493
REMARK  210  A    between atoms: _493  and  _494
REMARK  211  A    between atoms: _494  and  _495
REMARK  212  A    between atoms: _495  and  _496
REMARK  213  A    between atoms: _496  and  _497
REMARK  214  A    between atoms: _501  and  _503
REMARK  215  A    between atoms: _503  and  _504
REMARK  216  A    between atoms: _506  and  _508
REMARK  217  A    between atoms: _508  and  _509
REMARK  218  A    between atoms: _508  and  _511
REMARK  219  A    between atoms: _511  and  _512
REMARK  220  A    between atoms: _517  and  _518
REMARK  221  A    between atoms: _520  and  _522
REMARK  222  A    between atoms: _522  and  _523
REMARK  223  A    between atoms: _525  and  _527
REMARK  224  A    between atoms: _527  and  _528
REMARK  225  A    between atoms: _527  and  _530
REMARK  226  A    between atoms: _530  and  _531
REMARK                            x       y       z     vdW  Elec       q    Type
REMARK                         _______ _______ _______ _____ _____    ______ ____
ROOT
ATOM      1  O   HOH     1      -3.471  29.130  52.053  0.00  0.00    +0.000 OA
ENDROOT
TORSDOF 0
REMARK  Name = ../refined-set-2016/3tza/3tza_pocket.pdb
REMARK  226 active torsions:
REMARK  status: ('A' for Active; 'I' for Inactive)
REMARK    1  A    between atoms: _1  and  _3
REMARK    2  A    between atoms: _3  and  _4
REMARK    3  A    between atoms: _3  and  _6
REMARK    4  A    between atoms: _6  and  _7
REMARK    5  A    between atoms: _10  and  _12
REMARK    6  A    between atoms: _12  and  _13
REMARK    7  A    between atoms: _12  and  _15
REMARK    8  A    between atoms: _15  and  _16
REMARK    9  A    between atoms: _16  and  _17
REMARK   10  A    between atoms: _20  and  _22
REMARK   11  A    between atoms: _22  and  _23
REMARK   12  A    between atoms: _22  and  _25
REMARK   13  A    between atoms: _25  and  _26
REMARK   14  A    between atoms: _29  and  _30
REMARK   15  A    between atoms: _35  and  _37
REMARK   16  A    between atoms: _37  and  _38
REMARK   17  A    between atoms: _37  and  _40
REMARK   18  A    between atoms: _40  and  _41
REMARK   19  A    between atoms: _46  and  _47
REMARK   20  A    between atoms: _49  and  _51
REMARK   21  A    between atoms: _51  and  _52
REMARK   22  A    between atoms: _51  and  _54
REMARK   23  A    between atoms: _54  and  _55
REMARK   24  A    between atoms: _55  and  _56
REMARK   25  A    between atoms: _56  and  _57
REMARK   26  A    between atoms: _57  and  _58
REMARK   27  A    between atoms: _62  and  _64
REMARK   28  A    between atoms: _64  and  _65
REMARK   29  A    between atoms: _64  and  _67
REMARK   30  A    between atoms: _67  and  _68
REMARK   31  A    between atoms: _73  and  _74
REMARK   32  A    between atoms: _76  and  _78
REMARK   33  A    between atoms: _78  and  _79
REMARK   34  A    between atoms: _81  and  _83
REMARK   35  A    between atoms: _83  and  _84
REMARK   36  A    between atoms: _87  and  _89
REMARK   37  A    between atoms: _89  and  _90
REMARK   38  A    between atoms: _89  and  _92
REMARK   39  A    between atoms: _92  and  _93
REMARK   40  A    between atoms: _93  and  _94
REMARK   41  A    between atoms: _96  and  _98
REMARK   42  A    between atoms: _98  and  _99
REMARK   43  A    between atoms: _98  and  _101
REMARK   44  A    between atoms: _104  and  _106
REMARK   45  A    between atoms: _106  and  _107
REMARK   46  A    between atoms: _111  and  _112
REMARK   47  A    between atoms: _117  and  _119
REMARK   48  A    between atoms: _119  and  _120
REMARK   49  A    between atoms: _119  and  _122
REMARK   50  A    between atoms: _122  and  _123
REMARK   51  A    between atoms: _126  and  _128
REMARK   52  A    between atoms: _128  and  _129
REMARK   53  A    between atoms: _128  and  _131
REMARK   54  A    between atoms: _131  and  _132
REMARK   55  A    between atoms: _135  and  _137
REMARK   56  A    between atoms: _137  and  _138
REMARK   57  A    between atoms: _137  and  _140
REMARK   58  A    between atoms: _140  and  _141
REMARK   59  A    between atoms: _144  and  _146
REMARK   60  A    between atoms: _146  and  _147
REMARK   61  A    between atoms: _146  and  _149
REMARK   62  A    between atoms: _149  and  _150
REMARK   63  A    between atoms: _153  and  _155
REMARK   64  A    between atoms: _155  and  _156
REMARK   65  A    between atoms: _155  and  _158
REMARK   66  A    between atoms: _158  and  _159
REMARK   67  A    between atoms: _159  and  _160
REMARK   68  A    between atoms: _160  and  _161
REMARK   69  A    between atoms: _170  and  _172
REMARK   70  A    between atoms: _172  and  _173
REMARK   71  A    between atoms: _172  and  _175
REMARK   72  A    between atoms: _175  and  _176
REMARK   73  A    between atoms: _182  and  _184
REMARK   74  A    between atoms: _184  and  _185
REMARK   75  A    between atoms: _184  and  _187
REMARK   76  A    between atoms: _187  and  _188
REMARK   77  A    between atoms: _191  and  _193
REMARK   78  A    between atoms: _193  and  _194
REMARK   79  A    between atoms: _196  and  _198
REMARK   80  A    between atoms: _198  and  _199
REMARK   81  A    between atoms: _198  and  _201
REMARK   82  A    between atoms: _201  and  _202
REMARK   83  A    between atoms: _205  and  _207
REMARK   84  A    between atoms: _207  and  _208
REMARK   85  A    between atoms: _207  and  _210
REMARK   86  A    between atoms: _210  and  _211
REMARK   87  A    between atoms: _213  and  _215
REMARK   88  A    between atoms: _215  and  _216
REMARK   89  A    between atoms: _215  and  _218
REMARK   90  A    between atoms: _218  and  _219
REMARK   91  A    between atoms: _219  and  _220
REMARK   92  A    between atoms: _222  and  _224
REMARK   93  A    between atoms: _224  and  _225
REMARK   94  A    between atoms: _224  and  _227
REMARK   95  A    between atoms: _227  and  _228
REMARK   96  A    between atoms: _231  and  _233
REMARK   97  A    between atoms: _233  and  _234
REMARK   98  A    between atoms: _233  and  _236
REMARK   99  A    between atoms: _236  and  _237
REMARK  100  A    between atoms: _240  and  _242
REMARK  101  A    between atoms: _242  and  _243
REMARK  102  A    between atoms: _242  and  _245
REMARK  103  A    between atoms: _245  and  _246
REMARK  104  A    between atoms: _249  and  _251
REMARK  105  A    between atoms: _251  and  _252
REMARK  106  A    between atoms: _251  and  _254
REMARK  107  A    between atoms: _254  and  _255
REMARK  108  A    between atoms: _257  and  _259
REMARK  109  A    between atoms: _259  and  _260
REMARK  110  A    between atoms: _262  and  _264
REMARK  111  A    between atoms: _264  and  _265
REMARK  112  A    between atoms: _264  and  _267
REMARK  113  A    between atoms: _267  and  _268
REMARK  114  A    between atoms: _270  and  _272
REMARK  115  A    between atoms: _272  and  _273
REMARK  116  A    between atoms: _272  and  _275
REMARK  117  A    between atoms: _275  and  _276
REMARK  118  A    between atoms: _279  and  _281
REMARK  119  A    between atoms: _281  and  _282
REMARK  120  A    between atoms: _281  and  _284
REMARK  121  A    between atoms: _284  and  _285
REMARK  122  A    between atoms: _285  and  _286
REMARK  123  A    between atoms: _286  and  _287
REMARK  124  A    between atoms: _287  and  _288
REMARK  125  A    between atoms: _292  and  _294
REMARK  126  A    between atoms: _294  and  _295
REMARK  127  A    between atoms: _294  and  _297
REMARK  128  A    between atoms: _297  and  _298
REMARK  129  A    between atoms: _298  and  _299
REMARK  130  A    between atoms: _302  and  _304
REMARK  131  A    between atoms: _304  and  _305
REMARK  132  A    between atoms: _304  and  _307
REMARK  133  A    between atoms: _307  and  _308
REMARK  134  A    between atoms: _314  and  _316
REMARK  135  A    between atoms: _316  and  _317
REMARK  136  A    between atoms: _316  and  _319
REMARK  137  A    between atoms: _322  and  _324
REMARK  138  A    between atoms: _324  and  _325
REMARK  139  A    between atoms: _324  and  _327
REMARK  140  A    between atoms: _327  and  _328
REMARK  141  A    between atoms: _328  and  _329
REMARK  142  A    between atoms: _329  and  _330
REMARK  143  A    between atoms: _339  and  _341
REMARK  144  A    between atoms: _341  and  _342
REMARK  145  A    between atoms: _341  and  _344
REMARK  146  A    between atoms: _344  and  _345
REMARK  147  A    between atoms: _348  and  _350
REMARK  148  A    between atoms: _350  and  _351
REMARK  149  A    between atoms: _350  and  _353
REMARK  150  A    between atoms: _353  and  _354
REMARK  151  A    between atoms: _357  and  _359
REMARK  152  A    between atoms: _359  and  _360
REMARK  153  A    between atoms: _363  and  _365
REMARK  154  A    between atoms: _365  and  _366
REMARK  155  A    between atoms: _368  and  _370
REMARK  156  A    between atoms: _370  and  _371
REMARK  157  A    between atoms: _370  and  _373
REMARK  158  A    between atoms: _376  and  _378
REMARK  159  A    between atoms: _378  and  _379
REMARK  160  A    between atoms: _378  and  _381
REMARK  161  A    between atoms: _381  and  _382
REMARK  162  A    between atoms: _387  and  _388
REMARK  163  A    between atoms: _390  and  _392
REMARK  164  A    between atoms: _392  and  _393
REMARK  165  A    between atoms: _392  and  _395
REMARK  166  A    between atoms: _395  and  _396
REMARK  167  A    between atoms: _399  and  _401
REMARK  168  A    between atoms: _401  and  _402
REMARK  169  A    between atoms: _401  and  _404
REMARK  170  A    between atoms: _404  and  _405
REMARK  171  A    between atoms: _408  and  _410
REMARK  172  A    between atoms: _410  and  _411
REMARK  173  A    between atoms: _410  and  _413
REMARK  174  A    between atoms: _413  and  _414
REMARK  175  A    between atoms: _414  and  _415
REMARK  176  A    between atoms: _418  and  _420
REMARK  177  A    between atoms: _420  and  _421
REMARK  178  A    between atoms: _420  and  _423
REMARK  179  A    between atoms: _423  and  _424
REMARK  180  A    between atoms: _426  and  _428
REMARK  181  A    between atoms: _428  and  _429
REMARK  182  A    between atoms: _428  and  _431
REMARK  183  A    between atoms: _431  and  _432
REMARK  184  A    between atoms: _435  and  _437
REMARK  185  A    between atoms: _437  and  _438
REMARK  186  A    between atoms: _437  and  _440
REMARK  187  A    between atoms: _440  and  _441
REMARK  188  A    between atoms: _441  and  _442
REMARK  189  A    between atoms: _444  and  _446
REMARK  190  A    between atoms: _446  and  _447
REMARK  191  A    between atoms: _446  and  _449
REMARK  192  A    between atoms: _449  and  _450
REMARK  193  A    between atoms: _455  and  _457
REMARK  194  A    between atoms: _457  and  _458
REMARK  195  A    between atoms: _457  and  _460
REMARK  196  A    between atoms: _460  and  _461
REMARK  197  A    between atoms: _461  and  _462
REMARK  198  A    between atoms: _465  and  _467
REMARK  199  A    between atoms: _467  and  _468
REMARK  200  A    between atoms: _467  and  _470
REMARK  201  A    between atoms: _470  and  _471
REMARK  202  A    between atoms: _476  and  _477
REMARK  203  A    between atoms: _479  and  _481
REMARK  204  A    between atoms: _481  and  _482
REMARK  205  A    between atoms: _481  and  _484
REMARK  206  A    between atoms: _484  and  _485
REMARK  207  A    between atoms: _488  and  _490
REMARK  208  A    between atoms: _490  and  _491
REMARK  209  A    between atoms: _490  and  _493
REMARK  210  A    between atoms: _493  and  _494
REMARK  211  A    between atoms: _494  and  _495
REMARK  212  A    between atoms: _495  and  _496
REMARK  213  A    between atoms: _496  and  _497
REMARK  214  A    between atoms: _501  and  _503
REMARK  215  A    between atoms: _503  and  _504
REMARK  216  A    between atoms: _506  and  _508
REMARK  217  A    between atoms: _508  and  _509
REMARK  218  A    between atoms: _508  and  _511
REMARK  219  A    between atoms: _511  and  _512
REMARK  220  A    between atoms: _517  and  _518
REMARK  221  A    between atoms: _520  and  _522
REMARK  222  A    between atoms: _522  and  _523
REMARK  223  A    between atoms: _525  and  _527
REMARK  224  A    between atoms: _527  and  _528
REMARK  225  A    between atoms: _527  and  _530
REMARK  226  A    between atoms: _530  and  _531
REMARK                            x       y       z     vdW  Elec       q    Type
REMARK                         _______ _______ _______ _____ _____    ______ ____
ROOT
ATOM      1  O   HOH     1       5.401  20.541  53.533  0.00  0.00    +0.000 OA
ENDROOT
TORSDOF 0
REMARK  Name = ../refined-set-2016/3tza/3tza_pocket.pdb
REMARK  226 active torsions:
REMARK  status: ('A' for Active; 'I' for Inactive)
REMARK    1  A    between atoms: _1  and  _3
REMARK    2  A    between atoms: _3  and  _4
REMARK    3  A    between atoms: _3  and  _6
REMARK    4  A    between atoms: _6  and  _7
REMARK    5  A    between atoms: _10  and  _12
REMARK    6  A    between atoms: _12  and  _13
REMARK    7  A    between atoms: _12  and  _15
REMARK    8  A    between atoms: _15  and  _16
REMARK    9  A    between atoms: _16  and  _17
REMARK   10  A    between atoms: _20  and  _22
REMARK   11  A    between atoms: _22  and  _23
REMARK   12  A    between atoms: _22  and  _25
REMARK   13  A    between atoms: _25  and  _26
REMARK   14  A    between atoms: _29  and  _30
REMARK   15  A    between atoms: _35  and  _37
REMARK   16  A    between atoms: _37  and  _38
REMARK   17  A    between atoms: _37  and  _40
REMARK   18  A    between atoms: _40  and  _41
REMARK   19  A    between atoms: _46  and  _47
REMARK   20  A    between atoms: _49  and  _51
REMARK   21  A    between atoms: _51  and  _52
REMARK   22  A    between atoms: _51  and  _54
REMARK   23  A    between atoms: _54  and  _55
REMARK   24  A    between atoms: _55  and  _56
REMARK   25  A    between atoms: _56  and  _57
REMARK   26  A    between atoms: _57  and  _58
REMARK   27  A    between atoms: _62  and  _64
REMARK   28  A    between atoms: _64  and  _65
REMARK   29  A    between atoms: _64  and  _67
REMARK   30  A    between atoms: _67  and  _68
REMARK   31  A    between atoms: _73  and  _74
REMARK   32  A    between atoms: _76  and  _78
REMARK   33  A    between atoms: _78  and  _79
REMARK   34  A    between atoms: _81  and  _83
REMARK   35  A    between atoms: _83  and  _84
REMARK   36  A    between atoms: _87  and  _89
REMARK   37  A    between atoms: _89  and  _90
REMARK   38  A    between atoms: _89  and  _92
REMARK   39  A    between atoms: _92  and  _93
REMARK   40  A    between atoms: _93  and  _94
REMARK   41  A    between atoms: _96  and  _98
REMARK   42  A    between atoms: _98  and  _99
REMARK   43  A    between atoms: _98  and  _101
REMARK   44  A    between atoms: _104  and  _106
REMARK   45  A    between atoms: _106  and  _107
REMARK   46  A    between atoms: _111  and  _112
REMARK   47  A    between atoms: _117  and  _119
REMARK   48  A    between atoms: _119  and  _120
REMARK   49  A    between atoms: _119  and  _122
REMARK   50  A    between atoms: _122  and  _123
REMARK   51  A    between atoms: _126  and  _128
REMARK   52  A    between atoms: _128  and  _129
REMARK   53  A    between atoms: _128  and  _131
REMARK   54  A    between atoms: _131  and  _132
REMARK   55  A    between atoms: _135  and  _137
REMARK   56  A    between atoms: _137  and  _138
REMARK   57  A    between atoms: _137  and  _140
REMARK   58  A    between atoms: _140  and  _141
REMARK   59  A    between atoms: _144  and  _146
REMARK   60  A    between atoms: _146  and  _147
REMARK   61  A    between atoms: _146  and  _149
REMARK   62  A    between atoms: _149  and  _150
REMARK   63  A    between atoms: _153  and  _155
REMARK   64  A    between atoms: _155  and  _156
REMARK   65  A    between atoms: _155  and  _158
REMARK   66  A    between atoms: _158  and  _159
REMARK   67  A    between atoms: _159  and  _160
REMARK   68  A    between atoms: _160  and  _161
REMARK   69  A    between atoms: _170  and  _172
REMARK   70  A    between atoms: _172  and  _173
REMARK   71  A    between atoms: _172  and  _175
REMARK   72  A    between atoms: _175  and  _176
REMARK   73  A    between atoms: _182  and  _184
REMARK   74  A    between atoms: _184  and  _185
REMARK   75  A    between atoms: _184  and  _187
REMARK   76  A    between atoms: _187  and  _188
REMARK   77  A    between atoms: _191  and  _193
REMARK   78  A    between atoms: _193  and  _194
REMARK   79  A    between atoms: _196  and  _198
REMARK   80  A    between atoms: _198  and  _199
REMARK   81  A    between atoms: _198  and  _201
REMARK   82  A    between atoms: _201  and  _202
REMARK   83  A    between atoms: _205  and  _207
REMARK   84  A    between atoms: _207  and  _208
REMARK   85  A    between atoms: _207  and  _210
REMARK   86  A    between atoms: _210  and  _211
REMARK   87  A    between atoms: _213  and  _215
REMARK   88  A    between atoms: _215  and  _216
REMARK   89  A    between atoms: _215  and  _218
REMARK   90  A    between atoms: _218  and  _219
REMARK   91  A    between atoms: _219  and  _220
REMARK   92  A    between atoms: _222  and  _224
REMARK   93  A    between atoms: _224  and  _225
REMARK   94  A    between atoms: _224  and  _227
REMARK   95  A    between atoms: _227  and  _228
REMARK   96  A    between atoms: _231  and  _233
REMARK   97  A    between atoms: _233  and  _234
REMARK   98  A    between atoms: _233  and  _236
REMARK   99  A    between atoms: _236  and  _237
REMARK  100  A    between atoms: _240  and  _242
REMARK  101  A    between atoms: _242  and  _243
REMARK  102  A    between atoms: _242  and  _245
REMARK  103  A    between atoms: _245  and  _246
REMARK  104  A    between atoms: _249  and  _251
REMARK  105  A    between atoms: _251  and  _252
REMARK  106  A    between atoms: _251  and  _254
REMARK  107  A    between atoms: _254  and  _255
REMARK  108  A    between atoms: _257  and  _259
REMARK  109  A    between atoms: _259  and  _260
REMARK  110  A    between atoms: _262  and  _264
REMARK  111  A    between atoms: _264  and  _265
REMARK  112  A    between atoms: _264  and  _267
REMARK  113  A    between atoms: _267  and  _268
REMARK  114  A    between atoms: _270  and  _272
REMARK  115  A    between atoms: _272  and  _273
REMARK  116  A    between atoms: _272  and  _275
REMARK  117  A    between atoms: _275  and  _276
REMARK  118  A    between atoms: _279  and  _281
REMARK  119  A    between atoms: _281  and  _282
REMARK  120  A    between atoms: _281  and  _284
REMARK  121  A    between atoms: _284  and  _285
REMARK  122  A    between atoms: _285  and  _286
REMARK  123  A    between atoms: _286  and  _287
REMARK  124  A    between atoms: _287  and  _288
REMARK  125  A    between atoms: _292  and  _294
REMARK  126  A    between atoms: _294  and  _295
REMARK  127  A    between atoms: _294  and  _297
REMARK  128  A    between atoms: _297  and  _298
REMARK  129  A    between atoms: _298  and  _299
REMARK  130  A    between atoms: _302  and  _304
REMARK  131  A    between atoms: _304  and  _305
REMARK  132  A    between atoms: _304  and  _307
REMARK  133  A    between atoms: _307  and  _308
REMARK  134  A    between atoms: _314  and  _316
REMARK  135  A    between atoms: _316  and  _317
REMARK  136  A    between atoms: _316  and  _319
REMARK  137  A    between atoms: _322  and  _324
REMARK  138  A    between atoms: _324  and  _325
REMARK  139  A    between atoms: _324  and  _327
REMARK  140  A    between atoms: _327  and  _328
REMARK  141  A    between atoms: _328  and  _329
REMARK  142  A    between atoms: _329  and  _330
REMARK  143  A    between atoms: _339  and  _341
REMARK  144  A    between atoms: _341  and  _342
REMARK  145  A    between atoms: _341  and  _344
REMARK  146  A    between atoms: _344  and  _345
REMARK  147  A    between atoms: _348  and  _350
REMARK  148  A    between atoms: _350  and  _351
REMARK  149  A    between atoms: _350  and  _353
REMARK  150  A    between atoms: _353  and  _354
REMARK  151  A    between atoms: _357  and  _359
REMARK  152  A    between atoms: _359  and  _360
REMARK  153  A    between atoms: _363  and  _365
REMARK  154  A    between atoms: _365  and  _366
REMARK  155  A    between atoms: _368  and  _370
REMARK  156  A    between atoms: _370  and  _371
REMARK  157  A    between atoms: _370  and  _373
REMARK  158  A    between atoms: _376  and  _378
REMARK  159  A    between atoms: _378  and  _379
REMARK  160  A    between atoms: _378  and  _381
REMARK  161  A    between atoms: _381  and  _382
REMARK  162  A    between atoms: _387  and  _388
REMARK  163  A    between atoms: _390  and  _392
REMARK  164  A    between atoms: _392  and  _393
REMARK  165  A    between atoms: _392  and  _395
REMARK  166  A    between atoms: _395  and  _396
REMARK  167  A    between atoms: _399  and  _401
REMARK  168  A    between atoms: _401  and  _402
REMARK  169  A    between atoms: _401  and  _404
REMARK  170  A    between atoms: _404  and  _405
REMARK  171  A    between atoms: _408  and  _410
REMARK  172  A    between atoms: _410  and  _411
REMARK  173  A    between atoms: _410  and  _413
REMARK  174  A    between atoms: _413  and  _414
REMARK  175  A    between atoms: _414  and  _415
REMARK  176  A    between atoms: _418  and  _420
REMARK  177  A    between atoms: _420  and  _421
REMARK  178  A    between atoms: _420  and  _423
REMARK  179  A    between atoms: _423  and  _424
REMARK  180  A    between atoms: _426  and  _428
REMARK  181  A    between atoms: _428  and  _429
REMARK  182  A    between atoms: _428  and  _431
REMARK  183  A    between atoms: _431  and  _432
REMARK  184  A    between atoms: _435  and  _437
REMARK  185  A    between atoms: _437  and  _438
REMARK  186  A    between atoms: _437  and  _440
REMARK  187  A    between atoms: _440  and  _441
REMARK  188  A    between atoms: _441  and  _442
REMARK  189  A    between atoms: _444  and  _446
REMARK  190  A    between atoms: _446  and  _447
REMARK  191  A    between atoms: _446  and  _449
REMARK  192  A    between atoms: _449  and  _450
REMARK  193  A    between atoms: _455  and  _457
REMARK  194  A    between atoms: _457  and  _458
REMARK  195  A    between atoms: _457  and  _460
REMARK  196  A    between atoms: _460  and  _461
REMARK  197  A    between atoms: _461  and  _462
REMARK  198  A    between atoms: _465  and  _467
REMARK  199  A    between atoms: _467  and  _468
REMARK  200  A    between atoms: _467  and  _470
REMARK  201  A    between atoms: _470  and  _471
REMARK  202  A    between atoms: _476  and  _477
REMARK  203  A    between atoms: _479  and  _481
REMARK  204  A    between atoms: _481  and  _482
REMARK  205  A    between atoms: _481  and  _484
REMARK  206  A    between atoms: _484  and  _485
REMARK  207  A    between atoms: _488  and  _490
REMARK  208  A    between atoms: _490  and  _491
REMARK  209  A    between atoms: _490  and  _493
REMARK  210  A    between atoms: _493  and  _494
REMARK  211  A    between atoms: _494  and  _495
REMARK  212  A    between atoms: _495  and  _496
REMARK  213  A    between atoms: _496  and  _497
REMARK  214  A    between atoms: _501  and  _503
REMARK  215  A    between atoms: _503  and  _504
REMARK  216  A    between atoms: _506  and  _508
REMARK  217  A    between atoms: _508  and  _509
REMARK  218  A    between atoms: _508  and  _511
REMARK  219  A    between atoms: _511  and  _512
REMARK  220  A    between atoms: _517  and  _518
REMARK  221  A    between atoms: _520  and  _522
REMARK  222  A    between atoms: _522  and  _523
REMARK  223  A    between atoms: _525  and  _527
REMARK  224  A    between atoms: _527  and  _528
REMARK  225  A    between atoms: _527  and  _530
REMARK  226  A    between atoms: _530  and  _531
REMARK                            x       y       z     vdW  Elec       q    Type
REMARK                         _______ _______ _______ _____ _____    ______ ____
ROOT
ATOM      1  O   HOH     1      -5.831  33.346  52.626  0.00  0.00    +0.000 OA
ENDROOT
TORSDOF 0
REMARK  Name = ../refined-set-2016/3tza/3tza_pocket.pdb
REMARK  226 active torsions:
REMARK  status: ('A' for Active; 'I' for Inactive)
REMARK    1  A    between atoms: _1  and  _3
REMARK    2  A    between atoms: _3  and  _4
REMARK    3  A    between atoms: _3  and  _6
REMARK    4  A    between atoms: _6  and  _7
REMARK    5  A    between atoms: _10  and  _12
REMARK    6  A    between atoms: _12  and  _13
REMARK    7  A    between atoms: _12  and  _15
REMARK    8  A    between atoms: _15  and  _16
REMARK    9  A    between atoms: _16  and  _17
REMARK   10  A    between atoms: _20  and  _22
REMARK   11  A    between atoms: _22  and  _23
REMARK   12  A    between atoms: _22  and  _25
REMARK   13  A    between atoms: _25  and  _26
REMARK   14  A    between atoms: _29  and  _30
REMARK   15  A    between atoms: _35  and  _37
REMARK   16  A    between atoms: _37  and  _38
REMARK   17  A    between atoms: _37  and  _40
REMARK   18  A    between atoms: _40  and  _41
REMARK   19  A    between atoms: _46  and  _47
REMARK   20  A    between atoms: _49  and  _51
REMARK   21  A    between atoms: _51  and  _52
REMARK   22  A    between atoms: _51  and  _54
REMARK   23  A    between atoms: _54  and  _55
REMARK   24  A    between atoms: _55  and  _56
REMARK   25  A    between atoms: _56  and  _57
REMARK   26  A    between atoms: _57  and  _58
REMARK   27  A    between atoms: _62  and  _64
REMARK   28  A    between atoms: _64  and  _65
REMARK   29  A    between atoms: _64  and  _67
REMARK   30  A    between atoms: _67  and  _68
REMARK   31  A    between atoms: _73  and  _74
REMARK   32  A    between atoms: _76  and  _78
REMARK   33  A    between atoms: _78  and  _79
REMARK   34  A    between atoms: _81  and  _83
REMARK   35  A    between atoms: _83  and  _84
REMARK   36  A    between atoms: _87  and  _89
REMARK   37  A    between atoms: _89  and  _90
REMARK   38  A    between atoms: _89  and  _92
REMARK   39  A    between atoms: _92  and  _93
REMARK   40  A    between atoms: _93  and  _94
REMARK   41  A    between atoms: _96  and  _98
REMARK   42  A    between atoms: _98  and  _99
REMARK   43  A    between atoms: _98  and  _101
REMARK   44  A    between atoms: _104  and  _106
REMARK   45  A    between atoms: _106  and  _107
REMARK   46  A    between atoms: _111  and  _112
REMARK   47  A    between atoms: _117  and  _119
REMARK   48  A    between atoms: _119  and  _120
REMARK   49  A    between atoms: _119  and  _122
REMARK   50  A    between atoms: _122  and  _123
REMARK   51  A    between atoms: _126  and  _128
REMARK   52  A    between atoms: _128  and  _129
REMARK   53  A    between atoms: _128  and  _131
REMARK   54  A    between atoms: _131  and  _132
REMARK   55  A    between atoms: _135  and  _137
REMARK   56  A    between atoms: _137  and  _138
REMARK   57  A    between atoms: _137  and  _140
REMARK   58  A    between atoms: _140  and  _141
REMARK   59  A    between atoms: _144  and  _146
REMARK   60  A    between atoms: _146  and  _147
REMARK   61  A    between atoms: _146  and  _149
REMARK   62  A    between atoms: _149  and  _150
REMARK   63  A    between atoms: _153  and  _155
REMARK   64  A    between atoms: _155  and  _156
REMARK   65  A    between atoms: _155  and  _158
REMARK   66  A    between atoms: _158  and  _159
REMARK   67  A    between atoms: _159  and  _160
REMARK   68  A    between atoms: _160  and  _161
REMARK   69  A    between atoms: _170  and  _172
REMARK   70  A    between atoms: _172  and  _173
REMARK   71  A    between atoms: _172  and  _175
REMARK   72  A    between atoms: _175  and  _176
REMARK   73  A    between atoms: _182  and  _184
REMARK   74  A    between atoms: _184  and  _185
REMARK   75  A    between atoms: _184  and  _187
REMARK   76  A    between atoms: _187  and  _188
REMARK   77  A    between atoms: _191  and  _193
REMARK   78  A    between atoms: _193  and  _194
REMARK   79  A    between atoms: _196  and  _198
REMARK   80  A    between atoms: _198  and  _199
REMARK   81  A    between atoms: _198  and  _201
REMARK   82  A    between atoms: _201  and  _202
REMARK   83  A    between atoms: _205  and  _207
REMARK   84  A    between atoms: _207  and  _208
REMARK   85  A    between atoms: _207  and  _210
REMARK   86  A    between atoms: _210  and  _211
REMARK   87  A    between atoms: _213  and  _215
REMARK   88  A    between atoms: _215  and  _216
REMARK   89  A    between atoms: _215  and  _218
REMARK   90  A    between atoms: _218  and  _219
REMARK   91  A    between atoms: _219  and  _220
REMARK   92  A    between atoms: _222  and  _224
REMARK   93  A    between atoms: _224  and  _225
REMARK   94  A    between atoms: _224  and  _227
REMARK   95  A    between atoms: _227  and  _228
REMARK   96  A    between atoms: _231  and  _233
REMARK   97  A    between atoms: _233  and  _234
REMARK   98  A    between atoms: _233  and  _236
REMARK   99  A    between atoms: _236  and  _237
REMARK  100  A    between atoms: _240  and  _242
REMARK  101  A    between atoms: _242  and  _243
REMARK  102  A    between atoms: _242  and  _245
REMARK  103  A    between atoms: _245  and  _246
REMARK  104  A    between atoms: _249  and  _251
REMARK  105  A    between atoms: _251  and  _252
REMARK  106  A    between atoms: _251  and  _254
REMARK  107  A    between atoms: _254  and  _255
REMARK  108  A    between atoms: _257  and  _259
REMARK  109  A    between atoms: _259  and  _260
REMARK  110  A    between atoms: _262  and  _264
REMARK  111  A    between atoms: _264  and  _265
REMARK  112  A    between atoms: _264  and  _267
REMARK  113  A    between atoms: _267  and  _268
REMARK  114  A    between atoms: _270  and  _272
REMARK  115  A    between atoms: _272  and  _273
REMARK  116  A    between atoms: _272  and  _275
REMARK  117  A    between atoms: _275  and  _276
REMARK  118  A    between atoms: _279  and  _281
REMARK  119  A    between atoms: _281  and  _282
REMARK  120  A    between atoms: _281  and  _284
REMARK  121  A    between atoms: _284  and  _285
REMARK  122  A    between atoms: _285  and  _286
REMARK  123  A    between atoms: _286  and  _287
REMARK  124  A    between atoms: _287  and  _288
REMARK  125  A    between atoms: _292  and  _294
REMARK  126  A    between atoms: _294  and  _295
REMARK  127  A    between atoms: _294  and  _297
REMARK  128  A    between atoms: _297  and  _298
REMARK  129  A    between atoms: _298  and  _299
REMARK  130  A    between atoms: _302  and  _304
REMARK  131  A    between atoms: _304  and  _305
REMARK  132  A    between atoms: _304  and  _307
REMARK  133  A    between atoms: _307  and  _308
REMARK  134  A    between atoms: _314  and  _316
REMARK  135  A    between atoms: _316  and  _317
REMARK  136  A    between atoms: _316  and  _319
REMARK  137  A    between atoms: _322  and  _324
REMARK  138  A    between atoms: _324  and  _325
REMARK  139  A    between atoms: _324  and  _327
REMARK  140  A    between atoms: _327  and  _328
REMARK  141  A    between atoms: _328  and  _329
REMARK  142  A    between atoms: _329  and  _330
REMARK  143  A    between atoms: _339  and  _341
REMARK  144  A    between atoms: _341  and  _342
REMARK  145  A    between atoms: _341  and  _344
REMARK  146  A    between atoms: _344  and  _345
REMARK  147  A    between atoms: _348  and  _350
REMARK  148  A    between atoms: _350  and  _351
REMARK  149  A    between atoms: _350  and  _353
REMARK  150  A    between atoms: _353  and  _354
REMARK  151  A    between atoms: _357  and  _359
REMARK  152  A    between atoms: _359  and  _360
REMARK  153  A    between atoms: _363  and  _365
REMARK  154  A    between atoms: _365  and  _366
REMARK  155  A    between atoms: _368  and  _370
REMARK  156  A    between atoms: _370  and  _371
REMARK  157  A    between atoms: _370  and  _373
REMARK  158  A    between atoms: _376  and  _378
REMARK  159  A    between atoms: _378  and  _379
REMARK  160  A    between atoms: _378  and  _381
REMARK  161  A    between atoms: _381  and  _382
REMARK  162  A    between atoms: _387  and  _388
REMARK  163  A    between atoms: _390  and  _392
REMARK  164  A    between atoms: _392  and  _393
REMARK  165  A    between atoms: _392  and  _395
REMARK  166  A    between atoms: _395  and  _396
REMARK  167  A    between atoms: _399  and  _401
REMARK  168  A    between atoms: _401  and  _402
REMARK  169  A    between atoms: _401  and  _404
REMARK  170  A    between atoms: _404  and  _405
REMARK  171  A    between atoms: _408  and  _410
REMARK  172  A    between atoms: _410  and  _411
REMARK  173  A    between atoms: _410  and  _413
REMARK  174  A    between atoms: _413  and  _414
REMARK  175  A    between atoms: _414  and  _415
REMARK  176  A    between atoms: _418  and  _420
REMARK  177  A    between atoms: _420  and  _421
REMARK  178  A    between atoms: _420  and  _423
REMARK  179  A    between atoms: _423  and  _424
REMARK  180  A    between atoms: _426  and  _428
REMARK  181  A    between atoms: _428  and  _429
REMARK  182  A    between atoms: _428  and  _431
REMARK  183  A    between atoms: _431  and  _432
REMARK  184  A    between atoms: _435  and  _437
REMARK  185  A    between atoms: _437  and  _438
REMARK  186  A    between atoms: _437  and  _440
REMARK  187  A    between atoms: _440  and  _441
REMARK  188  A    between atoms: _441  and  _442
REMARK  189  A    between atoms: _444  and  _446
REMARK  190  A    between atoms: _446  and  _447
REMARK  191  A    between atoms: _446  and  _449
REMARK  192  A    between atoms: _449  and  _450
REMARK  193  A    between atoms: _455  and  _457
REMARK  194  A    between atoms: _457  and  _458
REMARK  195  A    between atoms: _457  and  _460
REMARK  196  A    between atoms: _460  and  _461
REMARK  197  A    between atoms: _461  and  _462
REMARK  198  A    between atoms: _465  and  _467
REMARK  199  A    between atoms: _467  and  _468
REMARK  200  A    between atoms: _467  and  _470
REMARK  201  A    between atoms: _470  and  _471
REMARK  202  A    between atoms: _476  and  _477
REMARK  203  A    between atoms: _479  and  _481
REMARK  204  A    between atoms: _481  and  _482
REMARK  205  A    between atoms: _481  and  _484
REMARK  206  A    between atoms: _484  and  _485
REMARK  207  A    between atoms: _488  and  _490
REMARK  208  A    between atoms: _490  and  _491
REMARK  209  A    between atoms: _490  and  _493
REMARK  210  A    between atoms: _493  and  _494
REMARK  211  A    between atoms: _494  and  _495
REMARK  212  A    between atoms: _495  and  _496
REMARK  213  A    between atoms: _496  and  _497
REMARK  214  A    between atoms: _501  and  _503
REMARK  215  A    between atoms: _503  and  _504
REMARK  216  A    between atoms: _506  and  _508
REMARK  217  A    between atoms: _508  and  _509
REMARK  218  A    between atoms: _508  and  _511
REMARK  219  A    between atoms: _511  and  _512
REMARK  220  A    between atoms: _517  and  _518
REMARK  221  A    between atoms: _520  and  _522
REMARK  222  A    between atoms: _522  and  _523
REMARK  223  A    between atoms: _525  and  _527
REMARK  224  A    between atoms: _527  and  _528
REMARK  225  A    between atoms: _527  and  _530
REMARK  226  A    between atoms: _530  and  _531
REMARK                            x       y       z     vdW  Elec       q    Type
REMARK                         _______ _______ _______ _____ _____    ______ ____
ROOT
ATOM      1  O   HOH     1      -4.099  27.545  45.008  0.00  0.00    +0.000 OA
ENDROOT
TORSDOF 0
REMARK  Name = ../refined-set-2016/3tza/3tza_pocket.pdb
REMARK  226 active torsions:
REMARK  status: ('A' for Active; 'I' for Inactive)
REMARK    1  A    between atoms: _1  and  _3
REMARK    2  A    between atoms: _3  and  _4
REMARK    3  A    between atoms: _3  and  _6
REMARK    4  A    between atoms: _6  and  _7
REMARK    5  A    between atoms: _10  and  _12
REMARK    6  A    between atoms: _12  and  _13
REMARK    7  A    between atoms: _12  and  _15
REMARK    8  A    between atoms: _15  and  _16
REMARK    9  A    between atoms: _16  and  _17
REMARK   10  A    between atoms: _20  and  _22
REMARK   11  A    between atoms: _22  and  _23
REMARK   12  A    between atoms: _22  and  _25
REMARK   13  A    between atoms: _25  and  _26
REMARK   14  A    between atoms: _29  and  _30
REMARK   15  A    between atoms: _35  and  _37
REMARK   16  A    between atoms: _37  and  _38
REMARK   17  A    between atoms: _37  and  _40
REMARK   18  A    between atoms: _40  and  _41
REMARK   19  A    between atoms: _46  and  _47
REMARK   20  A    between atoms: _49  and  _51
REMARK   21  A    between atoms: _51  and  _52
REMARK   22  A    between atoms: _51  and  _54
REMARK   23  A    between atoms: _54  and  _55
REMARK   24  A    between atoms: _55  and  _56
REMARK   25  A    between atoms: _56  and  _57
REMARK   26  A    between atoms: _57  and  _58
REMARK   27  A    between atoms: _62  and  _64
REMARK   28  A    between atoms: _64  and  _65
REMARK   29  A    between atoms: _64  and  _67
REMARK   30  A    between atoms: _67  and  _68
REMARK   31  A    between atoms: _73  and  _74
REMARK   32  A    between atoms: _76  and  _78
REMARK   33  A    between atoms: _78  and  _79
REMARK   34  A    between atoms: _81  and  _83
REMARK   35  A    between atoms: _83  and  _84
REMARK   36  A    between atoms: _87  and  _89
REMARK   37  A    between atoms: _89  and  _90
REMARK   38  A    between atoms: _89  and  _92
REMARK   39  A    between atoms: _92  and  _93
REMARK   40  A    between atoms: _93  and  _94
REMARK   41  A    between atoms: _96  and  _98
REMARK   42  A    between atoms: _98  and  _99
REMARK   43  A    between atoms: _98  and  _101
REMARK   44  A    between atoms: _104  and  _106
REMARK   45  A    between atoms: _106  and  _107
REMARK   46  A    between atoms: _111  and  _112
REMARK   47  A    between atoms: _117  and  _119
REMARK   48  A    between atoms: _119  and  _120
REMARK   49  A    between atoms: _119  and  _122
REMARK   50  A    between atoms: _122  and  _123
REMARK   51  A    between atoms: _126  and  _128
REMARK   52  A    between atoms: _128  and  _129
REMARK   53  A    between atoms: _128  and  _131
REMARK   54  A    between atoms: _131  and  _132
REMARK   55  A    between atoms: _135  and  _137
REMARK   56  A    between atoms: _137  and  _138
REMARK   57  A    between atoms: _137  and  _140
REMARK   58  A    between atoms: _140  and  _141
REMARK   59  A    between atoms: _144  and  _146
REMARK   60  A    between atoms: _146  and  _147
REMARK   61  A    between atoms: _146  and  _149
REMARK   62  A    between atoms: _149  and  _150
REMARK   63  A    between atoms: _153  and  _155
REMARK   64  A    between atoms: _155  and  _156
REMARK   65  A    between atoms: _155  and  _158
REMARK   66  A    between atoms: _158  and  _159
REMARK   67  A    between atoms: _159  and  _160
REMARK   68  A    between atoms: _160  and  _161
REMARK   69  A    between atoms: _170  and  _172
REMARK   70  A    between atoms: _172  and  _173
REMARK   71  A    between atoms: _172  and  _175
REMARK   72  A    between atoms: _175  and  _176
REMARK   73  A    between atoms: _182  and  _184
REMARK   74  A    between atoms: _184  and  _185
REMARK   75  A    between atoms: _184  and  _187
REMARK   76  A    between atoms: _187  and  _188
REMARK   77  A    between atoms: _191  and  _193
REMARK   78  A    between atoms: _193  and  _194
REMARK   79  A    between atoms: _196  and  _198
REMARK   80  A    between atoms: _198  and  _199
REMARK   81  A    between atoms: _198  and  _201
REMARK   82  A    between atoms: _201  and  _202
REMARK   83  A    between atoms: _205  and  _207
REMARK   84  A    between atoms: _207  and  _208
REMARK   85  A    between atoms: _207  and  _210
REMARK   86  A    between atoms: _210  and  _211
REMARK   87  A    between atoms: _213  and  _215
REMARK   88  A    between atoms: _215  and  _216
REMARK   89  A    between atoms: _215  and  _218
REMARK   90  A    between atoms: _218  and  _219
REMARK   91  A    between atoms: _219  and  _220
REMARK   92  A    between atoms: _222  and  _224
REMARK   93  A    between atoms: _224  and  _225
REMARK   94  A    between atoms: _224  and  _227
REMARK   95  A    between atoms: _227  and  _228
REMARK   96  A    between atoms: _231  and  _233
REMARK   97  A    between atoms: _233  and  _234
REMARK   98  A    between atoms: _233  and  _236
REMARK   99  A    between atoms: _236  and  _237
REMARK  100  A    between atoms: _240  and  _242
REMARK  101  A    between atoms: _242  and  _243
REMARK  102  A    between atoms: _242  and  _245
REMARK  103  A    between atoms: _245  and  _246
REMARK  104  A    between atoms: _249  and  _251
REMARK  105  A    between atoms: _251  and  _252
REMARK  106  A    between atoms: _251  and  _254
REMARK  107  A    between atoms: _254  and  _255
REMARK  108  A    between atoms: _257  and  _259
REMARK  109  A    between atoms: _259  and  _260
REMARK  110  A    between atoms: _262  and  _264
REMARK  111  A    between atoms: _264  and  _265
REMARK  112  A    between atoms: _264  and  _267
REMARK  113  A    between atoms: _267  and  _268
REMARK  114  A    between atoms: _270  and  _272
REMARK  115  A    between atoms: _272  and  _273
REMARK  116  A    between atoms: _272  and  _275
REMARK  117  A    between atoms: _275  and  _276
REMARK  118  A    between atoms: _279  and  _281
REMARK  119  A    between atoms: _281  and  _282
REMARK  120  A    between atoms: _281  and  _284
REMARK  121  A    between atoms: _284  and  _285
REMARK  122  A    between atoms: _285  and  _286
REMARK  123  A    between atoms: _286  and  _287
REMARK  124  A    between atoms: _287  and  _288
REMARK  125  A    between atoms: _292  and  _294
REMARK  126  A    between atoms: _294  and  _295
REMARK  127  A    between atoms: _294  and  _297
REMARK  128  A    between atoms: _297  and  _298
REMARK  129  A    between atoms: _298  and  _299
REMARK  130  A    between atoms: _302  and  _304
REMARK  131  A    between atoms: _304  and  _305
REMARK  132  A    between atoms: _304  and  _307
REMARK  133  A    between atoms: _307  and  _308
REMARK  134  A    between atoms: _314  and  _316
REMARK  135  A    between atoms: _316  and  _317
REMARK  136  A    between atoms: _316  and  _319
REMARK  137  A    between atoms: _322  and  _324
REMARK  138  A    between atoms: _324  and  _325
REMARK  139  A    between atoms: _324  and  _327
REMARK  140  A    between atoms: _327  and  _328
REMARK  141  A    between atoms: _328  and  _329
REMARK  142  A    between atoms: _329  and  _330
REMARK  143  A    between atoms: _339  and  _341
REMARK  144  A    between atoms: _341  and  _342
REMARK  145  A    between atoms: _341  and  _344
REMARK  146  A    between atoms: _344  and  _345
REMARK  147  A    between atoms: _348  and  _350
REMARK  148  A    between atoms: _350  and  _351
REMARK  149  A    between atoms: _350  and  _353
REMARK  150  A    between atoms: _353  and  _354
REMARK  151  A    between atoms: _357  and  _359
REMARK  152  A    between atoms: _359  and  _360
REMARK  153  A    between atoms: _363  and  _365
REMARK  154  A    between atoms: _365  and  _366
REMARK  155  A    between atoms: _368  and  _370
REMARK  156  A    between atoms: _370  and  _371
REMARK  157  A    between atoms: _370  and  _373
REMARK  158  A    between atoms: _376  and  _378
REMARK  159  A    between atoms: _378  and  _379
REMARK  160  A    between atoms: _378  and  _381
REMARK  161  A    between atoms: _381  and  _382
REMARK  162  A    between atoms: _387  and  _388
REMARK  163  A    between atoms: _390  and  _392
REMARK  164  A    between atoms: _392  and  _393
REMARK  165  A    between atoms: _392  and  _395
REMARK  166  A    between atoms: _395  and  _396
REMARK  167  A    between atoms: _399  and  _401
REMARK  168  A    between atoms: _401  and  _402
REMARK  169  A    between atoms: _401  and  _404
REMARK  170  A    between atoms: _404  and  _405
REMARK  171  A    between atoms: _408  and  _410
REMARK  172  A    between atoms: _410  and  _411
REMARK  173  A    between atoms: _410  and  _413
REMARK  174  A    between atoms: _413  and  _414
REMARK  175  A    between atoms: _414  and  _415
REMARK  176  A    between atoms: _418  and  _420
REMARK  177  A    between atoms: _420  and  _421
REMARK  178  A    between atoms: _420  and  _423
REMARK  179  A    between atoms: _423  and  _424
REMARK  180  A    between atoms: _426  and  _428
REMARK  181  A    between atoms: _428  and  _429
REMARK  182  A    between atoms: _428  and  _431
REMARK  183  A    between atoms: _431  and  _432
REMARK  184  A    between atoms: _435  and  _437
REMARK  185  A    between atoms: _437  and  _438
REMARK  186  A    between atoms: _437  and  _440
REMARK  187  A    between atoms: _440  and  _441
REMARK  188  A    between atoms: _441  and  _442
REMARK  189  A    between atoms: _444  and  _446
REMARK  190  A    between atoms: _446  and  _447
REMARK  191  A    between atoms: _446  and  _449
REMARK  192  A    between atoms: _449  and  _450
REMARK  193  A    between atoms: _455  and  _457
REMARK  194  A    between atoms: _457  and  _458
REMARK  195  A    between atoms: _457  and  _460
REMARK  196  A    between atoms: _460  and  _461
REMARK  197  A    between atoms: _461  and  _462
REMARK  198  A    between atoms: _465  and  _467
REMARK  199  A    between atoms: _467  and  _468
REMARK  200  A    between atoms: _467  and  _470
REMARK  201  A    between atoms: _470  and  _471
REMARK  202  A    between atoms: _476  and  _477
REMARK  203  A    between atoms: _479  and  _481
REMARK  204  A    between atoms: _481  and  _482
REMARK  205  A    between atoms: _481  and  _484
REMARK  206  A    between atoms: _484  and  _485
REMARK  207  A    between atoms: _488  and  _490
REMARK  208  A    between atoms: _490  and  _491
REMARK  209  A    between atoms: _490  and  _493
REMARK  210  A    between atoms: _493  and  _494
REMARK  211  A    between atoms: _494  and  _495
REMARK  212  A    between atoms: _495  and  _496
REMARK  213  A    between atoms: _496  and  _497
REMARK  214  A    between atoms: _501  and  _503
REMARK  215  A    between atoms: _503  and  _504
REMARK  216  A    between atoms: _506  and  _508
REMARK  217  A    between atoms: _508  and  _509
REMARK  218  A    between atoms: _508  and  _511
REMARK  219  A    between atoms: _511  and  _512
REMARK  220  A    between atoms: _517  and  _518
REMARK  221  A    between atoms: _520  and  _522
REMARK  222  A    between atoms: _522  and  _523
REMARK  223  A    between atoms: _525  and  _527
REMARK  224  A    between atoms: _527  and  _528
REMARK  225  A    between atoms: _527  and  _530
REMARK  226  A    between atoms: _530  and  _531
REMARK                            x       y       z     vdW  Elec       q    Type
REMARK                         _______ _______ _______ _____ _____    ______ ____
ROOT
ATOM      1  O   HOH     1      -1.153  26.892  48.870  0.00  0.00    +0.000 OA
ENDROOT
TORSDOF 0
REMARK  Name = ../refined-set-2016/3tza/3tza_pocket.pdb
REMARK  226 active torsions:
REMARK  status: ('A' for Active; 'I' for Inactive)
REMARK    1  A    between atoms: _1  and  _3
REMARK    2  A    between atoms: _3  and  _4
REMARK    3  A    between atoms: _3  and  _6
REMARK    4  A    between atoms: _6  and  _7
REMARK    5  A    between atoms: _10  and  _12
REMARK    6  A    between atoms: _12  and  _13
REMARK    7  A    between atoms: _12  and  _15
REMARK    8  A    between atoms: _15  and  _16
REMARK    9  A    between atoms: _16  and  _17
REMARK   10  A    between atoms: _20  and  _22
REMARK   11  A    between atoms: _22  and  _23
REMARK   12  A    between atoms: _22  and  _25
REMARK   13  A    between atoms: _25  and  _26
REMARK   14  A    between atoms: _29  and  _30
REMARK   15  A    between atoms: _35  and  _37
REMARK   16  A    between atoms: _37  and  _38
REMARK   17  A    between atoms: _37  and  _40
REMARK   18  A    between atoms: _40  and  _41
REMARK   19  A    between atoms: _46  and  _47
REMARK   20  A    between atoms: _49  and  _51
REMARK   21  A    between atoms: _51  and  _52
REMARK   22  A    between atoms: _51  and  _54
REMARK   23  A    between atoms: _54  and  _55
REMARK   24  A    between atoms: _55  and  _56
REMARK   25  A    between atoms: _56  and  _57
REMARK   26  A    between atoms: _57  and  _58
REMARK   27  A    between atoms: _62  and  _64
REMARK   28  A    between atoms: _64  and  _65
REMARK   29  A    between atoms: _64  and  _67
REMARK   30  A    between atoms: _67  and  _68
REMARK   31  A    between atoms: _73  and  _74
REMARK   32  A    between atoms: _76  and  _78
REMARK   33  A    between atoms: _78  and  _79
REMARK   34  A    between atoms: _81  and  _83
REMARK   35  A    between atoms: _83  and  _84
REMARK   36  A    between atoms: _87  and  _89
REMARK   37  A    between atoms: _89  and  _90
REMARK   38  A    between atoms: _89  and  _92
REMARK   39  A    between atoms: _92  and  _93
REMARK   40  A    between atoms: _93  and  _94
REMARK   41  A    between atoms: _96  and  _98
REMARK   42  A    between atoms: _98  and  _99
REMARK   43  A    between atoms: _98  and  _101
REMARK   44  A    between atoms: _104  and  _106
REMARK   45  A    between atoms: _106  and  _107
REMARK   46  A    between atoms: _111  and  _112
REMARK   47  A    between atoms: _117  and  _119
REMARK   48  A    between atoms: _119  and  _120
REMARK   49  A    between atoms: _119  and  _122
REMARK   50  A    between atoms: _122  and  _123
REMARK   51  A    between atoms: _126  and  _128
REMARK   52  A    between atoms: _128  and  _129
REMARK   53  A    between atoms: _128  and  _131
REMARK   54  A    between atoms: _131  and  _132
REMARK   55  A    between atoms: _135  and  _137
REMARK   56  A    between atoms: _137  and  _138
REMARK   57  A    between atoms: _137  and  _140
REMARK   58  A    between atoms: _140  and  _141
REMARK   59  A    between atoms: _144  and  _146
REMARK   60  A    between atoms: _146  and  _147
REMARK   61  A    between atoms: _146  and  _149
REMARK   62  A    between atoms: _149  and  _150
REMARK   63  A    between atoms: _153  and  _155
REMARK   64  A    between atoms: _155  and  _156
REMARK   65  A    between atoms: _155  and  _158
REMARK   66  A    between atoms: _158  and  _159
REMARK   67  A    between atoms: _159  and  _160
REMARK   68  A    between atoms: _160  and  _161
REMARK   69  A    between atoms: _170  and  _172
REMARK   70  A    between atoms: _172  and  _173
REMARK   71  A    between atoms: _172  and  _175
REMARK   72  A    between atoms: _175  and  _176
REMARK   73  A    between atoms: _182  and  _184
REMARK   74  A    between atoms: _184  and  _185
REMARK   75  A    between atoms: _184  and  _187
REMARK   76  A    between atoms: _187  and  _188
REMARK   77  A    between atoms: _191  and  _193
REMARK   78  A    between atoms: _193  and  _194
REMARK   79  A    between atoms: _196  and  _198
REMARK   80  A    between atoms: _198  and  _199
REMARK   81  A    between atoms: _198  and  _201
REMARK   82  A    between atoms: _201  and  _202
REMARK   83  A    between atoms: _205  and  _207
REMARK   84  A    between atoms: _207  and  _208
REMARK   85  A    between atoms: _207  and  _210
REMARK   86  A    between atoms: _210  and  _211
REMARK   87  A    between atoms: _213  and  _215
REMARK   88  A    between atoms: _215  and  _216
REMARK   89  A    between atoms: _215  and  _218
REMARK   90  A    between atoms: _218  and  _219
REMARK   91  A    between atoms: _219  and  _220
REMARK   92  A    between atoms: _222  and  _224
REMARK   93  A    between atoms: _224  and  _225
REMARK   94  A    between atoms: _224  and  _227
REMARK   95  A    between atoms: _227  and  _228
REMARK   96  A    between atoms: _231  and  _233
REMARK   97  A    between atoms: _233  and  _234
REMARK   98  A    between atoms: _233  and  _236
REMARK   99  A    between atoms: _236  and  _237
REMARK  100  A    between atoms: _240  and  _242
REMARK  101  A    between atoms: _242  and  _243
REMARK  102  A    between atoms: _242  and  _245
REMARK  103  A    between atoms: _245  and  _246
REMARK  104  A    between atoms: _249  and  _251
REMARK  105  A    between atoms: _251  and  _252
REMARK  106  A    between atoms: _251  and  _254
REMARK  107  A    between atoms: _254  and  _255
REMARK  108  A    between atoms: _257  and  _259
REMARK  109  A    between atoms: _259  and  _260
REMARK  110  A    between atoms: _262  and  _264
REMARK  111  A    between atoms: _264  and  _265
REMARK  112  A    between atoms: _264  and  _267
REMARK  113  A    between atoms: _267  and  _268
REMARK  114  A    between atoms: _270  and  _272
REMARK  115  A    between atoms: _272  and  _273
REMARK  116  A    between atoms: _272  and  _275
REMARK  117  A    between atoms: _275  and  _276
REMARK  118  A    between atoms: _279  and  _281
REMARK  119  A    between atoms: _281  and  _282
REMARK  120  A    between atoms: _281  and  _284
REMARK  121  A    between atoms: _284  and  _285
REMARK  122  A    between atoms: _285  and  _286
REMARK  123  A    between atoms: _286  and  _287
REMARK  124  A    between atoms: _287  and  _288
REMARK  125  A    between atoms: _292  and  _294
REMARK  126  A    between atoms: _294  and  _295
REMARK  127  A    between atoms: _294  and  _297
REMARK  128  A    between atoms: _297  and  _298
REMARK  129  A    between atoms: _298  and  _299
REMARK  130  A    between atoms: _302  and  _304
REMARK  131  A    between atoms: _304  and  _305
REMARK  132  A    between atoms: _304  and  _307
REMARK  133  A    between atoms: _307  and  _308
REMARK  134  A    between atoms: _314  and  _316
REMARK  135  A    between atoms: _316  and  _317
REMARK  136  A    between atoms: _316  and  _319
REMARK  137  A    between atoms: _322  and  _324
REMARK  138  A    between atoms: _324  and  _325
REMARK  139  A    between atoms: _324  and  _327
REMARK  140  A    between atoms: _327  and  _328
REMARK  141  A    between atoms: _328  and  _329
REMARK  142  A    between atoms: _329  and  _330
REMARK  143  A    between atoms: _339  and  _341
REMARK  144  A    between atoms: _341  and  _342
REMARK  145  A    between atoms: _341  and  _344
REMARK  146  A    between atoms: _344  and  _345
REMARK  147  A    between atoms: _348  and  _350
REMARK  148  A    between atoms: _350  and  _351
REMARK  149  A    between atoms: _350  and  _353
REMARK  150  A    between atoms: _353  and  _354
REMARK  151  A    between atoms: _357  and  _359
REMARK  152  A    between atoms: _359  and  _360
REMARK  153  A    between atoms: _363  and  _365
REMARK  154  A    between atoms: _365  and  _366
REMARK  155  A    between atoms: _368  and  _370
REMARK  156  A    between atoms: _370  and  _371
REMARK  157  A    between atoms: _370  and  _373
REMARK  158  A    between atoms: _376  and  _378
REMARK  159  A    between atoms: _378  and  _379
REMARK  160  A    between atoms: _378  and  _381
REMARK  161  A    between atoms: _381  and  _382
REMARK  162  A    between atoms: _387  and  _388
REMARK  163  A    between atoms: _390  and  _392
REMARK  164  A    between atoms: _392  and  _393
REMARK  165  A    between atoms: _392  and  _395
REMARK  166  A    between atoms: _395  and  _396
REMARK  167  A    between atoms: _399  and  _401
REMARK  168  A    between atoms: _401  and  _402
REMARK  169  A    between atoms: _401  and  _404
REMARK  170  A    between atoms: _404  and  _405
REMARK  171  A    between atoms: _408  and  _410
REMARK  172  A    between atoms: _410  and  _411
REMARK  173  A    between atoms: _410  and  _413
REMARK  174  A    between atoms: _413  and  _414
REMARK  175  A    between atoms: _414  and  _415
REMARK  176  A    between atoms: _418  and  _420
REMARK  177  A    between atoms: _420  and  _421
REMARK  178  A    between atoms: _420  and  _423
REMARK  179  A    between atoms: _423  and  _424
REMARK  180  A    between atoms: _426  and  _428
REMARK  181  A    between atoms: _428  and  _429
REMARK  182  A    between atoms: _428  and  _431
REMARK  183  A    between atoms: _431  and  _432
REMARK  184  A    between atoms: _435  and  _437
REMARK  185  A    between atoms: _437  and  _438
REMARK  186  A    between atoms: _437  and  _440
REMARK  187  A    between atoms: _440  and  _441
REMARK  188  A    between atoms: _441  and  _442
REMARK  189  A    between atoms: _444  and  _446
REMARK  190  A    between atoms: _446  and  _447
REMARK  191  A    between atoms: _446  and  _449
REMARK  192  A    between atoms: _449  and  _450
REMARK  193  A    between atoms: _455  and  _457
REMARK  194  A    between atoms: _457  and  _458
REMARK  195  A    between atoms: _457  and  _460
REMARK  196  A    between atoms: _460  and  _461
REMARK  197  A    between atoms: _461  and  _462
REMARK  198  A    between atoms: _465  and  _467
REMARK  199  A    between atoms: _467  and  _468
REMARK  200  A    between atoms: _467  and  _470
REMARK  201  A    between atoms: _470  and  _471
REMARK  202  A    between atoms: _476  and  _477
REMARK  203  A    between atoms: _479  and  _481
REMARK  204  A    between atoms: _481  and  _482
REMARK  205  A    between atoms: _481  and  _484
REMARK  206  A    between atoms: _484  and  _485
REMARK  207  A    between atoms: _488  and  _490
REMARK  208  A    between atoms: _490  and  _491
REMARK  209  A    between atoms: _490  and  _493
REMARK  210  A    between atoms: _493  and  _494
REMARK  211  A    between atoms: _494  and  _495
REMARK  212  A    between atoms: _495  and  _496
REMARK  213  A    between atoms: _496  and  _497
REMARK  214  A    between atoms: _501  and  _503
REMARK  215  A    between atoms: _503  and  _504
REMARK  216  A    between atoms: _506  and  _508
REMARK  217  A    between atoms: _508  and  _509
REMARK  218  A    between atoms: _508  and  _511
REMARK  219  A    between atoms: _511  and  _512
REMARK  220  A    between atoms: _517  and  _518
REMARK  221  A    between atoms: _520  and  _522
REMARK  222  A    between atoms: _522  and  _523
REMARK  223  A    between atoms: _525  and  _527
REMARK  224  A    between atoms: _527  and  _528
REMARK  225  A    between atoms: _527  and  _530
REMARK  226  A    between atoms: _530  and  _531
REMARK                            x       y       z     vdW  Elec       q    Type
REMARK                         _______ _______ _______ _____ _____    ______ ____
ROOT
ATOM      1  O   HOH     1       1.733  20.745  54.661  0.00  0.00    +0.000 OA
ENDROOT
TORSDOF 0
REMARK  Name = ../refined-set-2016/3tza/3tza_pocket.pdb
REMARK  226 active torsions:
REMARK  status: ('A' for Active; 'I' for Inactive)
REMARK    1  A    between atoms: _1  and  _3
REMARK    2  A    between atoms: _3  and  _4
REMARK    3  A    between atoms: _3  and  _6
REMARK    4  A    between atoms: _6  and  _7
REMARK    5  A    between atoms: _10  and  _12
REMARK    6  A    between atoms: _12  and  _13
REMARK    7  A    between atoms: _12  and  _15
REMARK    8  A    between atoms: _15  and  _16
REMARK    9  A    between atoms: _16  and  _17
REMARK   10  A    between atoms: _20  and  _22
REMARK   11  A    between atoms: _22  and  _23
REMARK   12  A    between atoms: _22  and  _25
REMARK   13  A    between atoms: _25  and  _26
REMARK   14  A    between atoms: _29  and  _30
REMARK   15  A    between atoms: _35  and  _37
REMARK   16  A    between atoms: _37  and  _38
REMARK   17  A    between atoms: _37  and  _40
REMARK   18  A    between atoms: _40  and  _41
REMARK   19  A    between atoms: _46  and  _47
REMARK   20  A    between atoms: _49  and  _51
REMARK   21  A    between atoms: _51  and  _52
REMARK   22  A    between atoms: _51  and  _54
REMARK   23  A    between atoms: _54  and  _55
REMARK   24  A    between atoms: _55  and  _56
REMARK   25  A    between atoms: _56  and  _57
REMARK   26  A    between atoms: _57  and  _58
REMARK   27  A    between atoms: _62  and  _64
REMARK   28  A    between atoms: _64  and  _65
REMARK   29  A    between atoms: _64  and  _67
REMARK   30  A    between atoms: _67  and  _68
REMARK   31  A    between atoms: _73  and  _74
REMARK   32  A    between atoms: _76  and  _78
REMARK   33  A    between atoms: _78  and  _79
REMARK   34  A    between atoms: _81  and  _83
REMARK   35  A    between atoms: _83  and  _84
REMARK   36  A    between atoms: _87  and  _89
REMARK   37  A    between atoms: _89  and  _90
REMARK   38  A    between atoms: _89  and  _92
REMARK   39  A    between atoms: _92  and  _93
REMARK   40  A    between atoms: _93  and  _94
REMARK   41  A    between atoms: _96  and  _98
REMARK   42  A    between atoms: _98  and  _99
REMARK   43  A    between atoms: _98  and  _101
REMARK   44  A    between atoms: _104  and  _106
REMARK   45  A    between atoms: _106  and  _107
REMARK   46  A    between atoms: _111  and  _112
REMARK   47  A    between atoms: _117  and  _119
REMARK   48  A    between atoms: _119  and  _120
REMARK   49  A    between atoms: _119  and  _122
REMARK   50  A    between atoms: _122  and  _123
REMARK   51  A    between atoms: _126  and  _128
REMARK   52  A    between atoms: _128  and  _129
REMARK   53  A    between atoms: _128  and  _131
REMARK   54  A    between atoms: _131  and  _132
REMARK   55  A    between atoms: _135  and  _137
REMARK   56  A    between atoms: _137  and  _138
REMARK   57  A    between atoms: _137  and  _140
REMARK   58  A    between atoms: _140  and  _141
REMARK   59  A    between atoms: _144  and  _146
REMARK   60  A    between atoms: _146  and  _147
REMARK   61  A    between atoms: _146  and  _149
REMARK   62  A    between atoms: _149  and  _150
REMARK   63  A    between atoms: _153  and  _155
REMARK   64  A    between atoms: _155  and  _156
REMARK   65  A    between atoms: _155  and  _158
REMARK   66  A    between atoms: _158  and  _159
REMARK   67  A    between atoms: _159  and  _160
REMARK   68  A    between atoms: _160  and  _161
REMARK   69  A    between atoms: _170  and  _172
REMARK   70  A    between atoms: _172  and  _173
REMARK   71  A    between atoms: _172  and  _175
REMARK   72  A    between atoms: _175  and  _176
REMARK   73  A    between atoms: _182  and  _184
REMARK   74  A    between atoms: _184  and  _185
REMARK   75  A    between atoms: _184  and  _187
REMARK   76  A    between atoms: _187  and  _188
REMARK   77  A    between atoms: _191  and  _193
REMARK   78  A    between atoms: _193  and  _194
REMARK   79  A    between atoms: _196  and  _198
REMARK   80  A    between atoms: _198  and  _199
REMARK   81  A    between atoms: _198  and  _201
REMARK   82  A    between atoms: _201  and  _202
REMARK   83  A    between atoms: _205  and  _207
REMARK   84  A    between atoms: _207  and  _208
REMARK   85  A    between atoms: _207  and  _210
REMARK   86  A    between atoms: _210  and  _211
REMARK   87  A    between atoms: _213  and  _215
REMARK   88  A    between atoms: _215  and  _216
REMARK   89  A    between atoms: _215  and  _218
REMARK   90  A    between atoms: _218  and  _219
REMARK   91  A    between atoms: _219  and  _220
REMARK   92  A    between atoms: _222  and  _224
REMARK   93  A    between atoms: _224  and  _225
REMARK   94  A    between atoms: _224  and  _227
REMARK   95  A    between atoms: _227  and  _228
REMARK   96  A    between atoms: _231  and  _233
REMARK   97  A    between atoms: _233  and  _234
REMARK   98  A    between atoms: _233  and  _236
REMARK   99  A    between atoms: _236  and  _237
REMARK  100  A    between atoms: _240  and  _242
REMARK  101  A    between atoms: _242  and  _243
REMARK  102  A    between atoms: _242  and  _245
REMARK  103  A    between atoms: _245  and  _246
REMARK  104  A    between atoms: _249  and  _251
REMARK  105  A    between atoms: _251  and  _252
REMARK  106  A    between atoms: _251  and  _254
REMARK  107  A    between atoms: _254  and  _255
REMARK  108  A    between atoms: _257  and  _259
REMARK  109  A    between atoms: _259  and  _260
REMARK  110  A    between atoms: _262  and  _264
REMARK  111  A    between atoms: _264  and  _265
REMARK  112  A    between atoms: _264  and  _267
REMARK  113  A    between atoms: _267  and  _268
REMARK  114  A    between atoms: _270  and  _272
REMARK  115  A    between atoms: _272  and  _273
REMARK  116  A    between atoms: _272  and  _275
REMARK  117  A    between atoms: _275  and  _276
REMARK  118  A    between atoms: _279  and  _281
REMARK  119  A    between atoms: _281  and  _282
REMARK  120  A    between atoms: _281  and  _284
REMARK  121  A    between atoms: _284  and  _285
REMARK  122  A    between atoms: _285  and  _286
REMARK  123  A    between atoms: _286  and  _287
REMARK  124  A    between atoms: _287  and  _288
REMARK  125  A    between atoms: _292  and  _294
REMARK  126  A    between atoms: _294  and  _295
REMARK  127  A    between atoms: _294  and  _297
REMARK  128  A    between atoms: _297  and  _298
REMARK  129  A    between atoms: _298  and  _299
REMARK  130  A    between atoms: _302  and  _304
REMARK  131  A    between atoms: _304  and  _305
REMARK  132  A    between atoms: _304  and  _307
REMARK  133  A    between atoms: _307  and  _308
REMARK  134  A    between atoms: _314  and  _316
REMARK  135  A    between atoms: _316  and  _317
REMARK  136  A    between atoms: _316  and  _319
REMARK  137  A    between atoms: _322  and  _324
REMARK  138  A    between atoms: _324  and  _325
REMARK  139  A    between atoms: _324  and  _327
REMARK  140  A    between atoms: _327  and  _328
REMARK  141  A    between atoms: _328  and  _329
REMARK  142  A    between atoms: _329  and  _330
REMARK  143  A    between atoms: _339  and  _341
REMARK  144  A    between atoms: _341  and  _342
REMARK  145  A    between atoms: _341  and  _344
REMARK  146  A    between atoms: _344  and  _345
REMARK  147  A    between atoms: _348  and  _350
REMARK  148  A    between atoms: _350  and  _351
REMARK  149  A    between atoms: _350  and  _353
REMARK  150  A    between atoms: _353  and  _354
REMARK  151  A    between atoms: _357  and  _359
REMARK  152  A    between atoms: _359  and  _360
REMARK  153  A    between atoms: _363  and  _365
REMARK  154  A    between atoms: _365  and  _366
REMARK  155  A    between atoms: _368  and  _370
REMARK  156  A    between atoms: _370  and  _371
REMARK  157  A    between atoms: _370  and  _373
REMARK  158  A    between atoms: _376  and  _378
REMARK  159  A    between atoms: _378  and  _379
REMARK  160  A    between atoms: _378  and  _381
REMARK  161  A    between atoms: _381  and  _382
REMARK  162  A    between atoms: _387  and  _388
REMARK  163  A    between atoms: _390  and  _392
REMARK  164  A    between atoms: _392  and  _393
REMARK  165  A    between atoms: _392  and  _395
REMARK  166  A    between atoms: _395  and  _396
REMARK  167  A    between atoms: _399  and  _401
REMARK  168  A    between atoms: _401  and  _402
REMARK  169  A    between atoms: _401  and  _404
REMARK  170  A    between atoms: _404  and  _405
REMARK  171  A    between atoms: _408  and  _410
REMARK  172  A    between atoms: _410  and  _411
REMARK  173  A    between atoms: _410  and  _413
REMARK  174  A    between atoms: _413  and  _414
REMARK  175  A    between atoms: _414  and  _415
REMARK  176  A    between atoms: _418  and  _420
REMARK  177  A    between atoms: _420  and  _421
REMARK  178  A    between atoms: _420  and  _423
REMARK  179  A    between atoms: _423  and  _424
REMARK  180  A    between atoms: _426  and  _428
REMARK  181  A    between atoms: _428  and  _429
REMARK  182  A    between atoms: _428  and  _431
REMARK  183  A    between atoms: _431  and  _432
REMARK  184  A    between atoms: _435  and  _437
REMARK  185  A    between atoms: _437  and  _438
REMARK  186  A    between atoms: _437  and  _440
REMARK  187  A    between atoms: _440  and  _441
REMARK  188  A    between atoms: _441  and  _442
REMARK  189  A    between atoms: _444  and  _446
REMARK  190  A    between atoms: _446  and  _447
REMARK  191  A    between atoms: _446  and  _449
REMARK  192  A    between atoms: _449  and  _450
REMARK  193  A    between atoms: _455  and  _457
REMARK  194  A    between atoms: _457  and  _458
REMARK  195  A    between atoms: _457  and  _460
REMARK  196  A    between atoms: _460  and  _461
REMARK  197  A    between atoms: _461  and  _462
REMARK  198  A    between atoms: _465  and  _467
REMARK  199  A    between atoms: _467  and  _468
REMARK  200  A    between atoms: _467  and  _470
REMARK  201  A    between atoms: _470  and  _471
REMARK  202  A    between atoms: _476  and  _477
REMARK  203  A    between atoms: _479  and  _481
REMARK  204  A    between atoms: _481  and  _482
REMARK  205  A    between atoms: _481  and  _484
REMARK  206  A    between atoms: _484  and  _485
REMARK  207  A    between atoms: _488  and  _490
REMARK  208  A    between atoms: _490  and  _491
REMARK  209  A    between atoms: _490  and  _493
REMARK  210  A    between atoms: _493  and  _494
REMARK  211  A    between atoms: _494  and  _495
REMARK  212  A    between atoms: _495  and  _496
REMARK  213  A    between atoms: _496  and  _497
REMARK  214  A    between atoms: _501  and  _503
REMARK  215  A    between atoms: _503  and  _504
REMARK  216  A    between atoms: _506  and  _508
REMARK  217  A    between atoms: _508  and  _509
REMARK  218  A    between atoms: _508  and  _511
REMARK  219  A    between atoms: _511  and  _512
REMARK  220  A    between atoms: _517  and  _518
REMARK  221  A    between atoms: _520  and  _522
REMARK  222  A    between atoms: _522  and  _523
REMARK  223  A    between atoms: _525  and  _527
REMARK  224  A    between atoms: _527  and  _528
REMARK  225  A    between atoms: _527  and  _530
REMARK  226  A    between atoms: _530  and  _531
REMARK                            x       y       z     vdW  Elec       q    Type
REMARK                         _______ _______ _______ _____ _____    ______ ____
ROOT
ATOM      1  O   HOH     1      -8.004  34.539  56.187  0.00  0.00    +0.000 OA
ENDROOT
TORSDOF 0
REMARK  Name = ../refined-set-2016/3tza/3tza_pocket.pdb
REMARK  226 active torsions:
REMARK  status: ('A' for Active; 'I' for Inactive)
REMARK    1  A    between atoms: _1  and  _3
REMARK    2  A    between atoms: _3  and  _4
REMARK    3  A    between atoms: _3  and  _6
REMARK    4  A    between atoms: _6  and  _7
REMARK    5  A    between atoms: _10  and  _12
REMARK    6  A    between atoms: _12  and  _13
REMARK    7  A    between atoms: _12  and  _15
REMARK    8  A    between atoms: _15  and  _16
REMARK    9  A    between atoms: _16  and  _17
REMARK   10  A    between atoms: _20  and  _22
REMARK   11  A    between atoms: _22  and  _23
REMARK   12  A    between atoms: _22  and  _25
REMARK   13  A    between atoms: _25  and  _26
REMARK   14  A    between atoms: _29  and  _30
REMARK   15  A    between atoms: _35  and  _37
REMARK   16  A    between atoms: _37  and  _38
REMARK   17  A    between atoms: _37  and  _40
REMARK   18  A    between atoms: _40  and  _41
REMARK   19  A    between atoms: _46  and  _47
REMARK   20  A    between atoms: _49  and  _51
REMARK   21  A    between atoms: _51  and  _52
REMARK   22  A    between atoms: _51  and  _54
REMARK   23  A    between atoms: _54  and  _55
REMARK   24  A    between atoms: _55  and  _56
REMARK   25  A    between atoms: _56  and  _57
REMARK   26  A    between atoms: _57  and  _58
REMARK   27  A    between atoms: _62  and  _64
REMARK   28  A    between atoms: _64  and  _65
REMARK   29  A    between atoms: _64  and  _67
REMARK   30  A    between atoms: _67  and  _68
REMARK   31  A    between atoms: _73  and  _74
REMARK   32  A    between atoms: _76  and  _78
REMARK   33  A    between atoms: _78  and  _79
REMARK   34  A    between atoms: _81  and  _83
REMARK   35  A    between atoms: _83  and  _84
REMARK   36  A    between atoms: _87  and  _89
REMARK   37  A    between atoms: _89  and  _90
REMARK   38  A    between atoms: _89  and  _92
REMARK   39  A    between atoms: _92  and  _93
REMARK   40  A    between atoms: _93  and  _94
REMARK   41  A    between atoms: _96  and  _98
REMARK   42  A    between atoms: _98  and  _99
REMARK   43  A    between atoms: _98  and  _101
REMARK   44  A    between atoms: _104  and  _106
REMARK   45  A    between atoms: _106  and  _107
REMARK   46  A    between atoms: _111  and  _112
REMARK   47  A    between atoms: _117  and  _119
REMARK   48  A    between atoms: _119  and  _120
REMARK   49  A    between atoms: _119  and  _122
REMARK   50  A    between atoms: _122  and  _123
REMARK   51  A    between atoms: _126  and  _128
REMARK   52  A    between atoms: _128  and  _129
REMARK   53  A    between atoms: _128  and  _131
REMARK   54  A    between atoms: _131  and  _132
REMARK   55  A    between atoms: _135  and  _137
REMARK   56  A    between atoms: _137  and  _138
REMARK   57  A    between atoms: _137  and  _140
REMARK   58  A    between atoms: _140  and  _141
REMARK   59  A    between atoms: _144  and  _146
REMARK   60  A    between atoms: _146  and  _147
REMARK   61  A    between atoms: _146  and  _149
REMARK   62  A    between atoms: _149  and  _150
REMARK   63  A    between atoms: _153  and  _155
REMARK   64  A    between atoms: _155  and  _156
REMARK   65  A    between atoms: _155  and  _158
REMARK   66  A    between atoms: _158  and  _159
REMARK   67  A    between atoms: _159  and  _160
REMARK   68  A    between atoms: _160  and  _161
REMARK   69  A    between atoms: _170  and  _172
REMARK   70  A    between atoms: _172  and  _173
REMARK   71  A    between atoms: _172  and  _175
REMARK   72  A    between atoms: _175  and  _176
REMARK   73  A    between atoms: _182  and  _184
REMARK   74  A    between atoms: _184  and  _185
REMARK   75  A    between atoms: _184  and  _187
REMARK   76  A    between atoms: _187  and  _188
REMARK   77  A    between atoms: _191  and  _193
REMARK   78  A    between atoms: _193  and  _194
REMARK   79  A    between atoms: _196  and  _198
REMARK   80  A    between atoms: _198  and  _199
REMARK   81  A    between atoms: _198  and  _201
REMARK   82  A    between atoms: _201  and  _202
REMARK   83  A    between atoms: _205  and  _207
REMARK   84  A    between atoms: _207  and  _208
REMARK   85  A    between atoms: _207  and  _210
REMARK   86  A    between atoms: _210  and  _211
REMARK   87  A    between atoms: _213  and  _215
REMARK   88  A    between atoms: _215  and  _216
REMARK   89  A    between atoms: _215  and  _218
REMARK   90  A    between atoms: _218  and  _219
REMARK   91  A    between atoms: _219  and  _220
REMARK   92  A    between atoms: _222  and  _224
REMARK   93  A    between atoms: _224  and  _225
REMARK   94  A    between atoms: _224  and  _227
REMARK   95  A    between atoms: _227  and  _228
REMARK   96  A    between atoms: _231  and  _233
REMARK   97  A    between atoms: _233  and  _234
REMARK   98  A    between atoms: _233  and  _236
REMARK   99  A    between atoms: _236  and  _237
REMARK  100  A    between atoms: _240  and  _242
REMARK  101  A    between atoms: _242  and  _243
REMARK  102  A    between atoms: _242  and  _245
REMARK  103  A    between atoms: _245  and  _246
REMARK  104  A    between atoms: _249  and  _251
REMARK  105  A    between atoms: _251  and  _252
REMARK  106  A    between atoms: _251  and  _254
REMARK  107  A    between atoms: _254  and  _255
REMARK  108  A    between atoms: _257  and  _259
REMARK  109  A    between atoms: _259  and  _260
REMARK  110  A    between atoms: _262  and  _264
REMARK  111  A    between atoms: _264  and  _265
REMARK  112  A    between atoms: _264  and  _267
REMARK  113  A    between atoms: _267  and  _268
REMARK  114  A    between atoms: _270  and  _272
REMARK  115  A    between atoms: _272  and  _273
REMARK  116  A    between atoms: _272  and  _275
REMARK  117  A    between atoms: _275  and  _276
REMARK  118  A    between atoms: _279  and  _281
REMARK  119  A    between atoms: _281  and  _282
REMARK  120  A    between atoms: _281  and  _284
REMARK  121  A    between atoms: _284  and  _285
REMARK  122  A    between atoms: _285  and  _286
REMARK  123  A    between atoms: _286  and  _287
REMARK  124  A    between atoms: _287  and  _288
REMARK  125  A    between atoms: _292  and  _294
REMARK  126  A    between atoms: _294  and  _295
REMARK  127  A    between atoms: _294  and  _297
REMARK  128  A    between atoms: _297  and  _298
REMARK  129  A    between atoms: _298  and  _299
REMARK  130  A    between atoms: _302  and  _304
REMARK  131  A    between atoms: _304  and  _305
REMARK  132  A    between atoms: _304  and  _307
REMARK  133  A    between atoms: _307  and  _308
REMARK  134  A    between atoms: _314  and  _316
REMARK  135  A    between atoms: _316  and  _317
REMARK  136  A    between atoms: _316  and  _319
REMARK  137  A    between atoms: _322  and  _324
REMARK  138  A    between atoms: _324  and  _325
REMARK  139  A    between atoms: _324  and  _327
REMARK  140  A    between atoms: _327  and  _328
REMARK  141  A    between atoms: _328  and  _329
REMARK  142  A    between atoms: _329  and  _330
REMARK  143  A    between atoms: _339  and  _341
REMARK  144  A    between atoms: _341  and  _342
REMARK  145  A    between atoms: _341  and  _344
REMARK  146  A    between atoms: _344  and  _345
REMARK  147  A    between atoms: _348  and  _350
REMARK  148  A    between atoms: _350  and  _351
REMARK  149  A    between atoms: _350  and  _353
REMARK  150  A    between atoms: _353  and  _354
REMARK  151  A    between atoms: _357  and  _359
REMARK  152  A    between atoms: _359  and  _360
REMARK  153  A    between atoms: _363  and  _365
REMARK  154  A    between atoms: _365  and  _366
REMARK  155  A    between atoms: _368  and  _370
REMARK  156  A    between atoms: _370  and  _371
REMARK  157  A    between atoms: _370  and  _373
REMARK  158  A    between atoms: _376  and  _378
REMARK  159  A    between atoms: _378  and  _379
REMARK  160  A    between atoms: _378  and  _381
REMARK  161  A    between atoms: _381  and  _382
REMARK  162  A    between atoms: _387  and  _388
REMARK  163  A    between atoms: _390  and  _392
REMARK  164  A    between atoms: _392  and  _393
REMARK  165  A    between atoms: _392  and  _395
REMARK  166  A    between atoms: _395  and  _396
REMARK  167  A    between atoms: _399  and  _401
REMARK  168  A    between atoms: _401  and  _402
REMARK  169  A    between atoms: _401  and  _404
REMARK  170  A    between atoms: _404  and  _405
REMARK  171  A    between atoms: _408  and  _410
REMARK  172  A    between atoms: _410  and  _411
REMARK  173  A    between atoms: _410  and  _413
REMARK  174  A    between atoms: _413  and  _414
REMARK  175  A    between atoms: _414  and  _415
REMARK  176  A    between atoms: _418  and  _420
REMARK  177  A    between atoms: _420  and  _421
REMARK  178  A    between atoms: _420  and  _423
REMARK  179  A    between atoms: _423  and  _424
REMARK  180  A    between atoms: _426  and  _428
REMARK  181  A    between atoms: _428  and  _429
REMARK  182  A    between atoms: _428  and  _431
REMARK  183  A    between atoms: _431  and  _432
REMARK  184  A    between atoms: _435  and  _437
REMARK  185  A    between atoms: _437  and  _438
REMARK  186  A    between atoms: _437  and  _440
REMARK  187  A    between atoms: _440  and  _441
REMARK  188  A    between atoms: _441  and  _442
REMARK  189  A    between atoms: _444  and  _446
REMARK  190  A    between atoms: _446  and  _447
REMARK  191  A    between atoms: _446  and  _449
REMARK  192  A    between atoms: _449  and  _450
REMARK  193  A    between atoms: _455  and  _457
REMARK  194  A    between atoms: _457  and  _458
REMARK  195  A    between atoms: _457  and  _460
REMARK  196  A    between atoms: _460  and  _461
REMARK  197  A    between atoms: _461  and  _462
REMARK  198  A    between atoms: _465  and  _467
REMARK  199  A    between atoms: _467  and  _468
REMARK  200  A    between atoms: _467  and  _470
REMARK  201  A    between atoms: _470  and  _471
REMARK  202  A    between atoms: _476  and  _477
REMARK  203  A    between atoms: _479  and  _481
REMARK  204  A    between atoms: _481  and  _482
REMARK  205  A    between atoms: _481  and  _484
REMARK  206  A    between atoms: _484  and  _485
REMARK  207  A    between atoms: _488  and  _490
REMARK  208  A    between atoms: _490  and  _491
REMARK  209  A    between atoms: _490  and  _493
REMARK  210  A    between atoms: _493  and  _494
REMARK  211  A    between atoms: _494  and  _495
REMARK  212  A    between atoms: _495  and  _496
REMARK  213  A    between atoms: _496  and  _497
REMARK  214  A    between atoms: _501  and  _503
REMARK  215  A    between atoms: _503  and  _504
REMARK  216  A    between atoms: _506  and  _508
REMARK  217  A    between atoms: _508  and  _509
REMARK  218  A    between atoms: _508  and  _511
REMARK  219  A    between atoms: _511  and  _512
REMARK  220  A    between atoms: _517  and  _518
REMARK  221  A    between atoms: _520  and  _522
REMARK  222  A    between atoms: _522  and  _523
REMARK  223  A    between atoms: _525  and  _527
REMARK  224  A    between atoms: _527  and  _528
REMARK  225  A    between atoms: _527  and  _530
REMARK  226  A    between atoms: _530  and  _531
REMARK                            x       y       z     vdW  Elec       q    Type
REMARK                         _______ _______ _______ _____ _____    ______ ____
ROOT
ATOM      1  O   HOH     1      -1.632  27.105  51.709  0.00  0.00    +0.000 OA
ENDROOT
TORSDOF 0
REMARK  Name = ../refined-set-2016/3tza/3tza_pocket.pdb
REMARK  226 active torsions:
REMARK  status: ('A' for Active; 'I' for Inactive)
REMARK    1  A    between atoms: _1  and  _3
REMARK    2  A    between atoms: _3  and  _4
REMARK    3  A    between atoms: _3  and  _6
REMARK    4  A    between atoms: _6  and  _7
REMARK    5  A    between atoms: _10  and  _12
REMARK    6  A    between atoms: _12  and  _13
REMARK    7  A    between atoms: _12  and  _15
REMARK    8  A    between atoms: _15  and  _16
REMARK    9  A    between atoms: _16  and  _17
REMARK   10  A    between atoms: _20  and  _22
REMARK   11  A    between atoms: _22  and  _23
REMARK   12  A    between atoms: _22  and  _25
REMARK   13  A    between atoms: _25  and  _26
REMARK   14  A    between atoms: _29  and  _30
REMARK   15  A    between atoms: _35  and  _37
REMARK   16  A    between atoms: _37  and  _38
REMARK   17  A    between atoms: _37  and  _40
REMARK   18  A    between atoms: _40  and  _41
REMARK   19  A    between atoms: _46  and  _47
REMARK   20  A    between atoms: _49  and  _51
REMARK   21  A    between atoms: _51  and  _52
REMARK   22  A    between atoms: _51  and  _54
REMARK   23  A    between atoms: _54  and  _55
REMARK   24  A    between atoms: _55  and  _56
REMARK   25  A    between atoms: _56  and  _57
REMARK   26  A    between atoms: _57  and  _58
REMARK   27  A    between atoms: _62  and  _64
REMARK   28  A    between atoms: _64  and  _65
REMARK   29  A    between atoms: _64  and  _67
REMARK   30  A    between atoms: _67  and  _68
REMARK   31  A    between atoms: _73  and  _74
REMARK   32  A    between atoms: _76  and  _78
REMARK   33  A    between atoms: _78  and  _79
REMARK   34  A    between atoms: _81  and  _83
REMARK   35  A    between atoms: _83  and  _84
REMARK   36  A    between atoms: _87  and  _89
REMARK   37  A    between atoms: _89  and  _90
REMARK   38  A    between atoms: _89  and  _92
REMARK   39  A    between atoms: _92  and  _93
REMARK   40  A    between atoms: _93  and  _94
REMARK   41  A    between atoms: _96  and  _98
REMARK   42  A    between atoms: _98  and  _99
REMARK   43  A    between atoms: _98  and  _101
REMARK   44  A    between atoms: _104  and  _106
REMARK   45  A    between atoms: _106  and  _107
REMARK   46  A    between atoms: _111  and  _112
REMARK   47  A    between atoms: _117  and  _119
REMARK   48  A    between atoms: _119  and  _120
REMARK   49  A    between atoms: _119  and  _122
REMARK   50  A    between atoms: _122  and  _123
REMARK   51  A    between atoms: _126  and  _128
REMARK   52  A    between atoms: _128  and  _129
REMARK   53  A    between atoms: _128  and  _131
REMARK   54  A    between atoms: _131  and  _132
REMARK   55  A    between atoms: _135  and  _137
REMARK   56  A    between atoms: _137  and  _138
REMARK   57  A    between atoms: _137  and  _140
REMARK   58  A    between atoms: _140  and  _141
REMARK   59  A    between atoms: _144  and  _146
REMARK   60  A    between atoms: _146  and  _147
REMARK   61  A    between atoms: _146  and  _149
REMARK   62  A    between atoms: _149  and  _150
REMARK   63  A    between atoms: _153  and  _155
REMARK   64  A    between atoms: _155  and  _156
REMARK   65  A    between atoms: _155  and  _158
REMARK   66  A    between atoms: _158  and  _159
REMARK   67  A    between atoms: _159  and  _160
REMARK   68  A    between atoms: _160  and  _161
REMARK   69  A    between atoms: _170  and  _172
REMARK   70  A    between atoms: _172  and  _173
REMARK   71  A    between atoms: _172  and  _175
REMARK   72  A    between atoms: _175  and  _176
REMARK   73  A    between atoms: _182  and  _184
REMARK   74  A    between atoms: _184  and  _185
REMARK   75  A    between atoms: _184  and  _187
REMARK   76  A    between atoms: _187  and  _188
REMARK   77  A    between atoms: _191  and  _193
REMARK   78  A    between atoms: _193  and  _194
REMARK   79  A    between atoms: _196  and  _198
REMARK   80  A    between atoms: _198  and  _199
REMARK   81  A    between atoms: _198  and  _201
REMARK   82  A    between atoms: _201  and  _202
REMARK   83  A    between atoms: _205  and  _207
REMARK   84  A    between atoms: _207  and  _208
REMARK   85  A    between atoms: _207  and  _210
REMARK   86  A    between atoms: _210  and  _211
REMARK   87  A    between atoms: _213  and  _215
REMARK   88  A    between atoms: _215  and  _216
REMARK   89  A    between atoms: _215  and  _218
REMARK   90  A    between atoms: _218  and  _219
REMARK   91  A    between atoms: _219  and  _220
REMARK   92  A    between atoms: _222  and  _224
REMARK   93  A    between atoms: _224  and  _225
REMARK   94  A    between atoms: _224  and  _227
REMARK   95  A    between atoms: _227  and  _228
REMARK   96  A    between atoms: _231  and  _233
REMARK   97  A    between atoms: _233  and  _234
REMARK   98  A    between atoms: _233  and  _236
REMARK   99  A    between atoms: _236  and  _237
REMARK  100  A    between atoms: _240  and  _242
REMARK  101  A    between atoms: _242  and  _243
REMARK  102  A    between atoms: _242  and  _245
REMARK  103  A    between atoms: _245  and  _246
REMARK  104  A    between atoms: _249  and  _251
REMARK  105  A    between atoms: _251  and  _252
REMARK  106  A    between atoms: _251  and  _254
REMARK  107  A    between atoms: _254  and  _255
REMARK  108  A    between atoms: _257  and  _259
REMARK  109  A    between atoms: _259  and  _260
REMARK  110  A    between atoms: _262  and  _264
REMARK  111  A    between atoms: _264  and  _265
REMARK  112  A    between atoms: _264  and  _267
REMARK  113  A    between atoms: _267  and  _268
REMARK  114  A    between atoms: _270  and  _272
REMARK  115  A    between atoms: _272  and  _273
REMARK  116  A    between atoms: _272  and  _275
REMARK  117  A    between atoms: _275  and  _276
REMARK  118  A    between atoms: _279  and  _281
REMARK  119  A    between atoms: _281  and  _282
REMARK  120  A    between atoms: _281  and  _284
REMARK  121  A    between atoms: _284  and  _285
REMARK  122  A    between atoms: _285  and  _286
REMARK  123  A    between atoms: _286  and  _287
REMARK  124  A    between atoms: _287  and  _288
REMARK  125  A    between atoms: _292  and  _294
REMARK  126  A    between atoms: _294  and  _295
REMARK  127  A    between atoms: _294  and  _297
REMARK  128  A    between atoms: _297  and  _298
REMARK  129  A    between atoms: _298  and  _299
REMARK  130  A    between atoms: _302  and  _304
REMARK  131  A    between atoms: _304  and  _305
REMARK  132  A    between atoms: _304  and  _307
REMARK  133  A    between atoms: _307  and  _308
REMARK  134  A    between atoms: _314  and  _316
REMARK  135  A    between atoms: _316  and  _317
REMARK  136  A    between atoms: _316  and  _319
REMARK  137  A    between atoms: _322  and  _324
REMARK  138  A    between atoms: _324  and  _325
REMARK  139  A    between atoms: _324  and  _327
REMARK  140  A    between atoms: _327  and  _328
REMARK  141  A    between atoms: _328  and  _329
REMARK  142  A    between atoms: _329  and  _330
REMARK  143  A    between atoms: _339  and  _341
REMARK  144  A    between atoms: _341  and  _342
REMARK  145  A    between atoms: _341  and  _344
REMARK  146  A    between atoms: _344  and  _345
REMARK  147  A    between atoms: _348  and  _350
REMARK  148  A    between atoms: _350  and  _351
REMARK  149  A    between atoms: _350  and  _353
REMARK  150  A    between atoms: _353  and  _354
REMARK  151  A    between atoms: _357  and  _359
REMARK  152  A    between atoms: _359  and  _360
REMARK  153  A    between atoms: _363  and  _365
REMARK  154  A    between atoms: _365  and  _366
REMARK  155  A    between atoms: _368  and  _370
REMARK  156  A    between atoms: _370  and  _371
REMARK  157  A    between atoms: _370  and  _373
REMARK  158  A    between atoms: _376  and  _378
REMARK  159  A    between atoms: _378  and  _379
REMARK  160  A    between atoms: _378  and  _381
REMARK  161  A    between atoms: _381  and  _382
REMARK  162  A    between atoms: _387  and  _388
REMARK  163  A    between atoms: _390  and  _392
REMARK  164  A    between atoms: _392  and  _393
REMARK  165  A    between atoms: _392  and  _395
REMARK  166  A    between atoms: _395  and  _396
REMARK  167  A    between atoms: _399  and  _401
REMARK  168  A    between atoms: _401  and  _402
REMARK  169  A    between atoms: _401  and  _404
REMARK  170  A    between atoms: _404  and  _405
REMARK  171  A    between atoms: _408  and  _410
REMARK  172  A    between atoms: _410  and  _411
REMARK  173  A    between atoms: _410  and  _413
REMARK  174  A    between atoms: _413  and  _414
REMARK  175  A    between atoms: _414  and  _415
REMARK  176  A    between atoms: _418  and  _420
REMARK  177  A    between atoms: _420  and  _421
REMARK  178  A    between atoms: _420  and  _423
REMARK  179  A    between atoms: _423  and  _424
REMARK  180  A    between atoms: _426  and  _428
REMARK  181  A    between atoms: _428  and  _429
REMARK  182  A    between atoms: _428  and  _431
REMARK  183  A    between atoms: _431  and  _432
REMARK  184  A    between atoms: _435  and  _437
REMARK  185  A    between atoms: _437  and  _438
REMARK  186  A    between atoms: _437  and  _440
REMARK  187  A    between atoms: _440  and  _441
REMARK  188  A    between atoms: _441  and  _442
REMARK  189  A    between atoms: _444  and  _446
REMARK  190  A    between atoms: _446  and  _447
REMARK  191  A    between atoms: _446  and  _449
REMARK  192  A    between atoms: _449  and  _450
REMARK  193  A    between atoms: _455  and  _457
REMARK  194  A    between atoms: _457  and  _458
REMARK  195  A    between atoms: _457  and  _460
REMARK  196  A    between atoms: _460  and  _461
REMARK  197  A    between atoms: _461  and  _462
REMARK  198  A    between atoms: _465  and  _467
REMARK  199  A    between atoms: _467  and  _468
REMARK  200  A    between atoms: _467  and  _470
REMARK  201  A    between atoms: _470  and  _471
REMARK  202  A    between atoms: _476  and  _477
REMARK  203  A    between atoms: _479  and  _481
REMARK  204  A    between atoms: _481  and  _482
REMARK  205  A    between atoms: _481  and  _484
REMARK  206  A    between atoms: _484  and  _485
REMARK  207  A    between atoms: _488  and  _490
REMARK  208  A    between atoms: _490  and  _491
REMARK  209  A    between atoms: _490  and  _493
REMARK  210  A    between atoms: _493  and  _494
REMARK  211  A    between atoms: _494  and  _495
REMARK  212  A    between atoms: _495  and  _496
REMARK  213  A    between atoms: _496  and  _497
REMARK  214  A    between atoms: _501  and  _503
REMARK  215  A    between atoms: _503  and  _504
REMARK  216  A    between atoms: _506  and  _508
REMARK  217  A    between atoms: _508  and  _509
REMARK  218  A    between atoms: _508  and  _511
REMARK  219  A    between atoms: _511  and  _512
REMARK  220  A    between atoms: _517  and  _518
REMARK  221  A    between atoms: _520  and  _522
REMARK  222  A    between atoms: _522  and  _523
REMARK  223  A    between atoms: _525  and  _527
REMARK  224  A    between atoms: _527  and  _528
REMARK  225  A    between atoms: _527  and  _530
REMARK  226  A    between atoms: _530  and  _531
REMARK                            x       y       z     vdW  Elec       q    Type
REMARK                         _______ _______ _______ _____ _____    ______ ____
ROOT
ATOM      1  O   HOH     1      -2.557  33.148  53.290  0.00  0.00    +0.000 OA
ENDROOT
TORSDOF 0
REMARK  Name = ../refined-set-2016/3tza/3tza_pocket.pdb
REMARK  226 active torsions:
REMARK  status: ('A' for Active; 'I' for Inactive)
REMARK    1  A    between atoms: _1  and  _3
REMARK    2  A    between atoms: _3  and  _4
REMARK    3  A    between atoms: _3  and  _6
REMARK    4  A    between atoms: _6  and  _7
REMARK    5  A    between atoms: _10  and  _12
REMARK    6  A    between atoms: _12  and  _13
REMARK    7  A    between atoms: _12  and  _15
REMARK    8  A    between atoms: _15  and  _16
REMARK    9  A    between atoms: _16  and  _17
REMARK   10  A    between atoms: _20  and  _22
REMARK   11  A    between atoms: _22  and  _23
REMARK   12  A    between atoms: _22  and  _25
REMARK   13  A    between atoms: _25  and  _26
REMARK   14  A    between atoms: _29  and  _30
REMARK   15  A    between atoms: _35  and  _37
REMARK   16  A    between atoms: _37  and  _38
REMARK   17  A    between atoms: _37  and  _40
REMARK   18  A    between atoms: _40  and  _41
REMARK   19  A    between atoms: _46  and  _47
REMARK   20  A    between atoms: _49  and  _51
REMARK   21  A    between atoms: _51  and  _52
REMARK   22  A    between atoms: _51  and  _54
REMARK   23  A    between atoms: _54  and  _55
REMARK   24  A    between atoms: _55  and  _56
REMARK   25  A    between atoms: _56  and  _57
REMARK   26  A    between atoms: _57  and  _58
REMARK   27  A    between atoms: _62  and  _64
REMARK   28  A    between atoms: _64  and  _65
REMARK   29  A    between atoms: _64  and  _67
REMARK   30  A    between atoms: _67  and  _68
REMARK   31  A    between atoms: _73  and  _74
REMARK   32  A    between atoms: _76  and  _78
REMARK   33  A    between atoms: _78  and  _79
REMARK   34  A    between atoms: _81  and  _83
REMARK   35  A    between atoms: _83  and  _84
REMARK   36  A    between atoms: _87  and  _89
REMARK   37  A    between atoms: _89  and  _90
REMARK   38  A    between atoms: _89  and  _92
REMARK   39  A    between atoms: _92  and  _93
REMARK   40  A    between atoms: _93  and  _94
REMARK   41  A    between atoms: _96  and  _98
REMARK   42  A    between atoms: _98  and  _99
REMARK   43  A    between atoms: _98  and  _101
REMARK   44  A    between atoms: _104  and  _106
REMARK   45  A    between atoms: _106  and  _107
REMARK   46  A    between atoms: _111  and  _112
REMARK   47  A    between atoms: _117  and  _119
REMARK   48  A    between atoms: _119  and  _120
REMARK   49  A    between atoms: _119  and  _122
REMARK   50  A    between atoms: _122  and  _123
REMARK   51  A    between atoms: _126  and  _128
REMARK   52  A    between atoms: _128  and  _129
REMARK   53  A    between atoms: _128  and  _131
REMARK   54  A    between atoms: _131  and  _132
REMARK   55  A    between atoms: _135  and  _137
REMARK   56  A    between atoms: _137  and  _138
REMARK   57  A    between atoms: _137  and  _140
REMARK   58  A    between atoms: _140  and  _141
REMARK   59  A    between atoms: _144  and  _146
REMARK   60  A    between atoms: _146  and  _147
REMARK   61  A    between atoms: _146  and  _149
REMARK   62  A    between atoms: _149  and  _150
REMARK   63  A    between atoms: _153  and  _155
REMARK   64  A    between atoms: _155  and  _156
REMARK   65  A    between atoms: _155  and  _158
REMARK   66  A    between atoms: _158  and  _159
REMARK   67  A    between atoms: _159  and  _160
REMARK   68  A    between atoms: _160  and  _161
REMARK   69  A    between atoms: _170  and  _172
REMARK   70  A    between atoms: _172  and  _173
REMARK   71  A    between atoms: _172  and  _175
REMARK   72  A    between atoms: _175  and  _176
REMARK   73  A    between atoms: _182  and  _184
REMARK   74  A    between atoms: _184  and  _185
REMARK   75  A    between atoms: _184  and  _187
REMARK   76  A    between atoms: _187  and  _188
REMARK   77  A    between atoms: _191  and  _193
REMARK   78  A    between atoms: _193  and  _194
REMARK   79  A    between atoms: _196  and  _198
REMARK   80  A    between atoms: _198  and  _199
REMARK   81  A    between atoms: _198  and  _201
REMARK   82  A    between atoms: _201  and  _202
REMARK   83  A    between atoms: _205  and  _207
REMARK   84  A    between atoms: _207  and  _208
REMARK   85  A    between atoms: _207  and  _210
REMARK   86  A    between atoms: _210  and  _211
REMARK   87  A    between atoms: _213  and  _215
REMARK   88  A    between atoms: _215  and  _216
REMARK   89  A    between atoms: _215  and  _218
REMARK   90  A    between atoms: _218  and  _219
REMARK   91  A    between atoms: _219  and  _220
REMARK   92  A    between atoms: _222  and  _224
REMARK   93  A    between atoms: _224  and  _225
REMARK   94  A    between atoms: _224  and  _227
REMARK   95  A    between atoms: _227  and  _228
REMARK   96  A    between atoms: _231  and  _233
REMARK   97  A    between atoms: _233  and  _234
REMARK   98  A    between atoms: _233  and  _236
REMARK   99  A    between atoms: _236  and  _237
REMARK  100  A    between atoms: _240  and  _242
REMARK  101  A    between atoms: _242  and  _243
REMARK  102  A    between atoms: _242  and  _245
REMARK  103  A    between atoms: _245  and  _246
REMARK  104  A    between atoms: _249  and  _251
REMARK  105  A    between atoms: _251  and  _252
REMARK  106  A    between atoms: _251  and  _254
REMARK  107  A    between atoms: _254  and  _255
REMARK  108  A    between atoms: _257  and  _259
REMARK  109  A    between atoms: _259  and  _260
REMARK  110  A    between atoms: _262  and  _264
REMARK  111  A    between atoms: _264  and  _265
REMARK  112  A    between atoms: _264  and  _267
REMARK  113  A    between atoms: _267  and  _268
REMARK  114  A    between atoms: _270  and  _272
REMARK  115  A    between atoms: _272  and  _273
REMARK  116  A    between atoms: _272  and  _275
REMARK  117  A    between atoms: _275  and  _276
REMARK  118  A    between atoms: _279  and  _281
REMARK  119  A    between atoms: _281  and  _282
REMARK  120  A    between atoms: _281  and  _284
REMARK  121  A    between atoms: _284  and  _285
REMARK  122  A    between atoms: _285  and  _286
REMARK  123  A    between atoms: _286  and  _287
REMARK  124  A    between atoms: _287  and  _288
REMARK  125  A    between atoms: _292  and  _294
REMARK  126  A    between atoms: _294  and  _295
REMARK  127  A    between atoms: _294  and  _297
REMARK  128  A    between atoms: _297  and  _298
REMARK  129  A    between atoms: _298  and  _299
REMARK  130  A    between atoms: _302  and  _304
REMARK  131  A    between atoms: _304  and  _305
REMARK  132  A    between atoms: _304  and  _307
REMARK  133  A    between atoms: _307  and  _308
REMARK  134  A    between atoms: _314  and  _316
REMARK  135  A    between atoms: _316  and  _317
REMARK  136  A    between atoms: _316  and  _319
REMARK  137  A    between atoms: _322  and  _324
REMARK  138  A    between atoms: _324  and  _325
REMARK  139  A    between atoms: _324  and  _327
REMARK  140  A    between atoms: _327  and  _328
REMARK  141  A    between atoms: _328  and  _329
REMARK  142  A    between atoms: _329  and  _330
REMARK  143  A    between atoms: _339  and  _341
REMARK  144  A    between atoms: _341  and  _342
REMARK  145  A    between atoms: _341  and  _344
REMARK  146  A    between atoms: _344  and  _345
REMARK  147  A    between atoms: _348  and  _350
REMARK  148  A    between atoms: _350  and  _351
REMARK  149  A    between atoms: _350  and  _353
REMARK  150  A    between atoms: _353  and  _354
REMARK  151  A    between atoms: _357  and  _359
REMARK  152  A    between atoms: _359  and  _360
REMARK  153  A    between atoms: _363  and  _365
REMARK  154  A    between atoms: _365  and  _366
REMARK  155  A    between atoms: _368  and  _370
REMARK  156  A    between atoms: _370  and  _371
REMARK  157  A    between atoms: _370  and  _373
REMARK  158  A    between atoms: _376  and  _378
REMARK  159  A    between atoms: _378  and  _379
REMARK  160  A    between atoms: _378  and  _381
REMARK  161  A    between atoms: _381  and  _382
REMARK  162  A    between atoms: _387  and  _388
REMARK  163  A    between atoms: _390  and  _392
REMARK  164  A    between atoms: _392  and  _393
REMARK  165  A    between atoms: _392  and  _395
REMARK  166  A    between atoms: _395  and  _396
REMARK  167  A    between atoms: _399  and  _401
REMARK  168  A    between atoms: _401  and  _402
REMARK  169  A    between atoms: _401  and  _404
REMARK  170  A    between atoms: _404  and  _405
REMARK  171  A    between atoms: _408  and  _410
REMARK  172  A    between atoms: _410  and  _411
REMARK  173  A    between atoms: _410  and  _413
REMARK  174  A    between atoms: _413  and  _414
REMARK  175  A    between atoms: _414  and  _415
REMARK  176  A    between atoms: _418  and  _420
REMARK  177  A    between atoms: _420  and  _421
REMARK  178  A    between atoms: _420  and  _423
REMARK  179  A    between atoms: _423  and  _424
REMARK  180  A    between atoms: _426  and  _428
REMARK  181  A    between atoms: _428  and  _429
REMARK  182  A    between atoms: _428  and  _431
REMARK  183  A    between atoms: _431  and  _432
REMARK  184  A    between atoms: _435  and  _437
REMARK  185  A    between atoms: _437  and  _438
REMARK  186  A    between atoms: _437  and  _440
REMARK  187  A    between atoms: _440  and  _441
REMARK  188  A    between atoms: _441  and  _442
REMARK  189  A    between atoms: _444  and  _446
REMARK  190  A    between atoms: _446  and  _447
REMARK  191  A    between atoms: _446  and  _449
REMARK  192  A    between atoms: _449  and  _450
REMARK  193  A    between atoms: _455  and  _457
REMARK  194  A    between atoms: _457  and  _458
REMARK  195  A    between atoms: _457  and  _460
REMARK  196  A    between atoms: _460  and  _461
REMARK  197  A    between atoms: _461  and  _462
REMARK  198  A    between atoms: _465  and  _467
REMARK  199  A    between atoms: _467  and  _468
REMARK  200  A    between atoms: _467  and  _470
REMARK  201  A    between atoms: _470  and  _471
REMARK  202  A    between atoms: _476  and  _477
REMARK  203  A    between atoms: _479  and  _481
REMARK  204  A    between atoms: _481  and  _482
REMARK  205  A    between atoms: _481  and  _484
REMARK  206  A    between atoms: _484  and  _485
REMARK  207  A    between atoms: _488  and  _490
REMARK  208  A    between atoms: _490  and  _491
REMARK  209  A    between atoms: _490  and  _493
REMARK  210  A    between atoms: _493  and  _494
REMARK  211  A    between atoms: _494  and  _495
REMARK  212  A    between atoms: _495  and  _496
REMARK  213  A    between atoms: _496  and  _497
REMARK  214  A    between atoms: _501  and  _503
REMARK  215  A    between atoms: _503  and  _504
REMARK  216  A    between atoms: _506  and  _508
REMARK  217  A    between atoms: _508  and  _509
REMARK  218  A    between atoms: _508  and  _511
REMARK  219  A    between atoms: _511  and  _512
REMARK  220  A    between atoms: _517  and  _518
REMARK  221  A    between atoms: _520  and  _522
REMARK  222  A    between atoms: _522  and  _523
REMARK  223  A    between atoms: _525  and  _527
REMARK  224  A    between atoms: _527  and  _528
REMARK  225  A    between atoms: _527  and  _530
REMARK  226  A    between atoms: _530  and  _531
REMARK                            x       y       z     vdW  Elec       q    Type
REMARK                         _______ _______ _______ _____ _____    ______ ____
ROOT
ATOM      1  O   HOH     1      -5.303  30.356  53.428  0.00  0.00    +0.000 OA
ENDROOT
TORSDOF 0
