REMARK  Name = ../refined-set-2016/1m0n/1m0n_pocket.pdb
REMARK  234 active torsions:
REMARK  status: ('A' for Active; 'I' for Inactive)
REMARK    1  A    between atoms: _1  and  _3
REMARK    2  A    between atoms: _3  and  _4
REMARK    3  A    between atoms: _3  and  _6
REMARK    4  A    between atoms: _6  and  _7
REMARK    5  A    between atoms: _10  and  _12
REMARK    6  A    between atoms: _12  and  _13
REMARK    7  A    between atoms: _12  and  _15
REMARK    8  A    between atoms: _15  and  _16
REMARK    9  A    between atoms: _18  and  _20
REMARK   10  A    between atoms: _20  and  _21
REMARK   11  A    between atoms: _23  and  _25
REMARK   12  A    between atoms: _25  and  _26
REMARK   13  A    between atoms: _25  and  _28
REMARK   14  A    between atoms: _28  and  _29
REMARK   15  A    between atoms: _29  and  _30
REMARK   16  A    between atoms: _35  and  _37
REMARK   17  A    between atoms: _37  and  _38
REMARK   18  A    between atoms: _37  and  _40
REMARK   19  A    between atoms: _40  and  _41
REMARK   20  A    between atoms: _41  and  _42
REMARK   21  A    between atoms: _44  and  _46
REMARK   22  A    between atoms: _46  and  _47
REMARK   23  A    between atoms: _46  and  _49
REMARK   24  A    between atoms: _49  and  _50
REMARK   25  A    between atoms: _52  and  _54
REMARK   26  A    between atoms: _54  and  _55
REMARK   27  A    between atoms: _54  and  _57
REMARK   28  A    between atoms: _57  and  _58
REMARK   29  A    between atoms: _60  and  _62
REMARK   30  A    between atoms: _62  and  _63
REMARK   31  A    between atoms: _62  and  _65
REMARK   32  A    between atoms: _65  and  _66
REMARK   33  A    between atoms: _69  and  _71
REMARK   34  A    between atoms: _71  and  _72
REMARK   35  A    between atoms: _74  and  _76
REMARK   36  A    between atoms: _76  and  _77
REMARK   37  A    between atoms: _80  and  _82
REMARK   38  A    between atoms: _82  and  _83
REMARK   39  A    between atoms: _82  and  _85
REMARK   40  A    between atoms: _85  and  _86
REMARK   41  A    between atoms: _86  and  _87
REMARK   42  A    between atoms: _90  and  _92
REMARK   43  A    between atoms: _92  and  _93
REMARK   44  A    between atoms: _92  and  _95
REMARK   45  A    between atoms: _95  and  _96
REMARK   46  A    between atoms: _98  and  _100
REMARK   47  A    between atoms: _100  and  _101
REMARK   48  A    between atoms: _100  and  _103
REMARK   49  A    between atoms: _103  and  _104
REMARK   50  A    between atoms: _109  and  _111
REMARK   51  A    between atoms: _111  and  _112
REMARK   52  A    between atoms: _111  and  _114
REMARK   53  A    between atoms: _114  and  _115
REMARK   54  A    between atoms: _115  and  _116
REMARK   55  A    between atoms: _119  and  _121
REMARK   56  A    between atoms: _121  and  _122
REMARK   57  A    between atoms: _121  and  _124
REMARK   58  A    between atoms: _124  and  _125
REMARK   59  A    between atoms: _127  and  _129
REMARK   60  A    between atoms: _129  and  _130
REMARK   61  A    between atoms: _129  and  _132
REMARK   62  A    between atoms: _132  and  _133
REMARK   63  A    between atoms: _143  and  _145
REMARK   64  A    between atoms: _145  and  _146
REMARK   65  A    between atoms: _145  and  _148
REMARK   66  A    between atoms: _148  and  _149
REMARK   67  A    between atoms: _154  and  _156
REMARK   68  A    between atoms: _156  and  _157
REMARK   69  A    between atoms: _159  and  _161
REMARK   70  A    between atoms: _161  and  _162
REMARK   71  A    between atoms: _161  and  _164
REMARK   72  A    between atoms: _164  and  _165
REMARK   73  A    between atoms: _165  and  _166
REMARK   74  A    between atoms: _168  and  _170
REMARK   75  A    between atoms: _170  and  _171
REMARK   76  A    between atoms: _170  and  _173
REMARK   77  A    between atoms: _173  and  _174
REMARK   78  A    between atoms: _177  and  _179
REMARK   79  A    between atoms: _179  and  _180
REMARK   80  A    between atoms: _183  and  _185
REMARK   81  A    between atoms: _185  and  _186
REMARK   82  A    between atoms: _185  and  _188
REMARK   83  A    between atoms: _188  and  _189
REMARK   84  A    between atoms: _192  and  _194
REMARK   85  A    between atoms: _194  and  _195
REMARK   86  A    between atoms: _194  and  _197
REMARK   87  A    between atoms: _197  and  _198
REMARK   88  A    between atoms: _200  and  _202
REMARK   89  A    between atoms: _202  and  _203
REMARK   90  A    between atoms: _202  and  _205
REMARK   91  A    between atoms: _205  and  _206
REMARK   92  A    between atoms: _209  and  _211
REMARK   93  A    between atoms: _211  and  _212
REMARK   94  A    between atoms: _215  and  _217
REMARK   95  A    between atoms: _217  and  _218
REMARK   96  A    between atoms: _217  and  _220
REMARK   97  A    between atoms: _220  and  _221
REMARK   98  A    between atoms: _221  and  _222
REMARK   99  A    between atoms: _226  and  _227
REMARK  100  A    between atoms: _232  and  _234
REMARK  101  A    between atoms: _234  and  _235
REMARK  102  A    between atoms: _234  and  _237
REMARK  103  A    between atoms: _237  and  _238
REMARK  104  A    between atoms: _241  and  _243
REMARK  105  A    between atoms: _243  and  _244
REMARK  106  A    between atoms: _243  and  _246
REMARK  107  A    between atoms: _246  and  _247
REMARK  108  A    between atoms: _250  and  _252
REMARK  109  A    between atoms: _252  and  _253
REMARK  110  A    between atoms: _252  and  _255
REMARK  111  A    between atoms: _255  and  _256
REMARK  112  A    between atoms: _258  and  _260
REMARK  113  A    between atoms: _260  and  _261
REMARK  114  A    between atoms: _260  and  _263
REMARK  115  A    between atoms: _263  and  _264
REMARK  116  A    between atoms: _266  and  _268
REMARK  117  A    between atoms: _268  and  _269
REMARK  118  A    between atoms: _271  and  _273
REMARK  119  A    between atoms: _273  and  _274
REMARK  120  A    between atoms: _276  and  _278
REMARK  121  A    between atoms: _278  and  _279
REMARK  122  A    between atoms: _278  and  _281
REMARK  123  A    between atoms: _281  and  _282
REMARK  124  A    between atoms: _285  and  _287
REMARK  125  A    between atoms: _287  and  _288
REMARK  126  A    between atoms: _287  and  _290
REMARK  127  A    between atoms: _290  and  _291
REMARK  128  A    between atoms: _291  and  _292
REMARK  129  A    between atoms: _295  and  _297
REMARK  130  A    between atoms: _297  and  _298
REMARK  131  A    between atoms: _301  and  _303
REMARK  132  A    between atoms: _303  and  _304
REMARK  133  A    between atoms: _303  and  _306
REMARK  134  A    between atoms: _306  and  _307
REMARK  135  A    between atoms: _307  and  _308
REMARK  136  A    between atoms: _313  and  _315
REMARK  137  A    between atoms: _315  and  _316
REMARK  138  A    between atoms: _315  and  _318
REMARK  139  A    between atoms: _318  and  _319
REMARK  140  A    between atoms: _322  and  _324
REMARK  141  A    between atoms: _324  and  _325
REMARK  142  A    between atoms: _327  and  _329
REMARK  143  A    between atoms: _329  and  _330
REMARK  144  A    between atoms: _329  and  _332
REMARK  145  A    between atoms: _332  and  _333
REMARK  146  A    between atoms: _336  and  _338
REMARK  147  A    between atoms: _338  and  _339
REMARK  148  A    between atoms: _338  and  _341
REMARK  149  A    between atoms: _341  and  _342
REMARK  150  A    between atoms: _345  and  _347
REMARK  151  A    between atoms: _347  and  _348
REMARK  152  A    between atoms: _347  and  _350
REMARK  153  A    between atoms: _350  and  _351
REMARK  154  A    between atoms: _353  and  _355
REMARK  155  A    between atoms: _355  and  _356
REMARK  156  A    between atoms: _355  and  _358
REMARK  157  A    between atoms: _358  and  _359
REMARK  158  A    between atoms: _359  and  _360
REMARK  159  A    between atoms: _360  and  _361
REMARK  160  A    between atoms: _361  and  _362
REMARK  161  A    between atoms: _367  and  _368
REMARK  162  A    between atoms: _373  and  _375
REMARK  163  A    between atoms: _375  and  _376
REMARK  164  A    between atoms: _375  and  _378
REMARK  165  A    between atoms: _378  and  _379
REMARK  166  A    between atoms: _382  and  _384
REMARK  167  A    between atoms: _384  and  _385
REMARK  168  A    between atoms: _388  and  _390
REMARK  169  A    between atoms: _390  and  _391
REMARK  170  A    between atoms: _390  and  _393
REMARK  171  A    between atoms: _393  and  _394
REMARK  172  A    between atoms: _399  and  _401
REMARK  173  A    between atoms: _401  and  _402
REMARK  174  A    between atoms: _401  and  _404
REMARK  175  A    between atoms: _407  and  _409
REMARK  176  A    between atoms: _409  and  _410
REMARK  177  A    between atoms: _409  and  _412
REMARK  178  A    between atoms: _412  and  _413
REMARK  179  A    between atoms: _413  and  _414
REMARK  180  A    between atoms: _414  and  _415
REMARK  181  A    between atoms: _424  and  _426
REMARK  182  A    between atoms: _426  and  _427
REMARK  183  A    between atoms: _426  and  _429
REMARK  184  A    between atoms: _429  and  _430
REMARK  185  A    between atoms: _435  and  _437
REMARK  186  A    between atoms: _437  and  _438
REMARK  187  A    between atoms: _437  and  _440
REMARK  188  A    between atoms: _440  and  _441
REMARK  189  A    between atoms: _447  and  _449
REMARK  190  A    between atoms: _449  and  _450
REMARK  191  A    between atoms: _449  and  _452
REMARK  192  A    between atoms: _452  and  _453
REMARK  193  A    between atoms: _455  and  _457
REMARK  194  A    between atoms: _457  and  _458
REMARK  195  A    between atoms: _457  and  _460
REMARK  196  A    between atoms: _460  and  _461
REMARK  197  A    between atoms: _461  and  _462
REMARK  198  A    between atoms: _465  and  _467
REMARK  199  A    between atoms: _467  and  _468
REMARK  200  A    between atoms: _467  and  _470
REMARK  201  A    between atoms: _470  and  _471
REMARK  202  A    between atoms: _473  and  _475
REMARK  203  A    between atoms: _475  and  _476
REMARK  204  A    between atoms: _475  and  _478
REMARK  205  A    between atoms: _478  and  _479
REMARK  206  A    between atoms: _479  and  _480
REMARK  207  A    between atoms: _483  and  _485
REMARK  208  A    between atoms: _485  and  _486
REMARK  209  A    between atoms: _485  and  _488
REMARK  210  A    between atoms: _488  and  _489
REMARK  211  A    between atoms: _492  and  _494
REMARK  212  A    between atoms: _494  and  _495
REMARK  213  A    between atoms: _494  and  _497
REMARK  214  A    between atoms: _497  and  _498
REMARK  215  A    between atoms: _504  and  _506
REMARK  216  A    between atoms: _506  and  _507
REMARK  217  A    between atoms: _506  and  _509
REMARK  218  A    between atoms: _509  and  _510
REMARK  219  A    between atoms: _515  and  _516
REMARK  220  A    between atoms: _518  and  _520
REMARK  221  A    between atoms: _520  and  _521
REMARK  222  A    between atoms: _520  and  _523
REMARK  223  A    between atoms: _523  and  _524
REMARK  224  A    between atoms: _527  and  _529
REMARK  225  A    between atoms: _529  and  _530
REMARK  226  A    between atoms: _529  and  _532
REMARK  227  A    between atoms: _532  and  _533
REMARK  228  A    between atoms: _536  and  _538
REMARK  229  A    between atoms: _538  and  _539
REMARK  230  A    between atoms: _538  and  _541
REMARK  231  A    between atoms: _541  and  _542
REMARK  232  A    between atoms: _547  and  _549
REMARK  233  A    between atoms: _549  and  _550
REMARK  234  A    between atoms: _549  and  _552
REMARK                            x       y       z     vdW  Elec       q    Type
REMARK                         _______ _______ _______ _____ _____    ______ ____
ROOT
ATOM      1  CA  GLN A   4      12.017  45.613  21.197  0.00  0.00    +0.149 C 
ENDROOT
BRANCH   1   4
ATOM      2  C   GLY A   3      10.286  44.149  21.903  0.00  0.00    +0.243 C 
ATOM      3  O   GLY A   3       9.784  45.120  22.508  0.00  0.00    -0.273 OA
ATOM      4  N   GLN A   4      11.409  44.277  21.208  0.00  0.00    -0.297 N 
ATOM      5  H   GLN A   4      11.835  43.476  20.700  0.00  0.00    +0.150 HD
BRANCH   2   6
ATOM      6  CA  GLY A   3       9.559  42.783  21.889  0.00  0.00    +0.176 C 
BRANCH   6   8
ATOM      7  C   SER A   2       7.865  43.386  20.251  0.00  0.00    +0.243 C 
ATOM      8  N   GLY A   3       8.149  43.074  21.502  0.00  0.00    -0.295 N 
ATOM      9  H   GLY A   3       7.392  43.031  22.214  0.00  0.00    +0.150 HD
ATOM     10  O   SER A   2       8.725  43.450  19.383  0.00  0.00    -0.273 OA
BRANCH   7  11
ATOM     11  CA  SER A   2       6.448  43.607  19.934  0.00  0.00    +0.178 C 
BRANCH  11  13
ATOM     12  C   THR A   1       6.592  45.826  20.937  0.00  0.00    +0.241 C 
ATOM     13  N   SER A   2       5.966  44.651  20.819  0.00  0.00    -0.295 N 
ATOM     14  H   SER A   2       5.107  44.480  21.379  0.00  0.00    +0.150 HD
ATOM     15  O   THR A   1       7.649  46.102  20.369  0.00  0.00    -0.274 OA
BRANCH  12  16
ATOM     16  CA  THR A   1       5.932  46.835  21.844  0.00  0.00    +0.172 C 
BRANCH  16  17
ATOM     17  N   THR A   1       4.799  46.191  22.547  0.00  0.00    -0.236 NA
ATOM     18  H   THR A   1       4.935  45.265  23.001  0.00  0.00    +0.142 HD
ENDBRANCH  16  17
BRANCH  16  19
ATOM     19  CB  THR A   1       7.060  47.453  22.808  0.00  0.00    +0.135 C 
ATOM     20  CG2 THR A   1       6.529  48.599  23.671  0.00  0.00    +0.034 C 
BRANCH  19  21
ATOM     21  OG1 THR A   1       7.610  46.423  23.631  0.00  0.00    -0.383 OA
ATOM     22  HG1 THR A   1       8.015  45.725  23.058  0.00  0.00    +0.210 HD
ENDBRANCH  19  21
ENDBRANCH  16  19
ENDBRANCH  12  16
ENDBRANCH  11  13
BRANCH  11  23
ATOM     23  CB  SER A   2       6.343  44.058  18.436  0.00  0.00    +0.166 C 
BRANCH  23  24
ATOM     24  OG  SER A   2       5.007  44.445  18.071  0.00  0.00    -0.380 OA
ATOM     25  H   SER A   2       4.717  45.202  18.639  0.00  0.00    +0.211 HD
ENDBRANCH  23  24
ENDBRANCH  11  23
ENDBRANCH   7  11
ENDBRANCH   6   8
ENDBRANCH   2   6
ENDBRANCH   1   4
BRANCH   1  26
ATOM     26  C   GLN A   4      11.552  46.203  19.862  0.00  0.00    +0.241 C 
ATOM     27  N   MET A   5      10.234  46.423  19.725  0.00  0.00    -0.297 N 
ATOM     28  H   MET A   5       9.591  46.184  20.507  0.00  0.00    +0.150 HD
ATOM     29  O   GLN A   4      12.349  46.405  18.953  0.00  0.00    -0.273 OA
BRANCH  27  30
ATOM     30  CA  MET A   5       9.679  47.004  18.471  0.00  0.00    +0.149 C 
BRANCH  30  31
ATOM     31  C   MET A   5      10.103  46.224  17.228  0.00  0.00    +0.241 C 
ATOM     32  N   SER A   6      10.042  44.894  17.248  0.00  0.00    -0.296 N 
ATOM     33  H   SER A   6       9.636  44.429  18.085  0.00  0.00    +0.150 HD
ATOM     34  O   MET A   5      10.546  46.840  16.297  0.00  0.00    -0.273 OA
BRANCH  32  35
ATOM     35  CA  SER A   6      10.527  44.040  16.128  0.00  0.00    +0.166 C 
BRANCH  35  36
ATOM     36  C   SER A   6       9.557  42.997  15.667  0.00  0.00    +0.229 C 
ATOM     37  O   SER A   6       9.425  42.760  14.481  0.00  0.00    -0.286 OA
ENDBRANCH  35  36
BRANCH  35  38
ATOM     38  CB  SER A   6      11.821  43.263  16.510  0.00  0.00    +0.165 C 
BRANCH  38  39
ATOM     39  OG  SER A   6      12.884  44.157  16.767  0.00  0.00    -0.380 OA
ATOM     40  H   SER A   6      12.637  44.755  17.516  0.00  0.00    +0.211 HD
ENDBRANCH  38  39
ENDBRANCH  35  38
ENDBRANCH  32  35
ENDBRANCH  30  31
BRANCH  30  41
ATOM     41  CB  MET A   5      10.295  48.365  18.318  0.00  0.00    +0.041 C 
BRANCH  41  42
ATOM     42  CG  MET A   5      10.107  49.251  19.518  0.00  0.00    +0.060 C 
BRANCH  42  43
ATOM     43  SD  MET A   5       8.265  49.533  19.888  0.00  0.00    -0.139 S 
ATOM     44  CE  MET A   5       8.160  51.202  20.250  0.00  0.00    +0.069 C 
ENDBRANCH  42  43
ENDBRANCH  41  42
ENDBRANCH  30  41
ENDBRANCH  27  30
ENDBRANCH   1  26
BRANCH   1  45
ATOM     45  CB  GLN A   4      13.537  45.503  21.307  0.00  0.00    +0.039 C 
BRANCH  45  46
ATOM     46  CG  GLN A   4      14.283  46.735  21.752  0.00  0.00    +0.087 C 
BRANCH  46  47
ATOM     47  CD  GLN A   4      13.747  47.303  23.011  0.00  0.00    +0.219 C 
ATOM     48  OE1 GLN A   4      13.706  46.653  24.030  0.00  0.00    -0.275 OA
ATOM     49  NE2 GLN A   4      13.426  48.541  22.971  0.00  0.00    -0.329 N 
ATOM     50 HE21 GLN A   4      13.115  49.026  23.837  0.00  0.00    +0.145 HD
ATOM     51 HE22 GLN A   4      13.476  49.062  22.073  0.00  0.00    +0.145 HD
ENDBRANCH  46  47
ENDBRANCH  45  46
ENDBRANCH   1  45
TORSDOF 24
REMARK  Name = ../refined-set-2016/1m0n/1m0n_pocket.pdb
REMARK  234 active torsions:
REMARK  status: ('A' for Active; 'I' for Inactive)
REMARK    1  A    between atoms: _1  and  _3
REMARK    2  A    between atoms: _3  and  _4
REMARK    3  A    between atoms: _3  and  _6
REMARK    4  A    between atoms: _6  and  _7
REMARK    5  A    between atoms: _10  and  _12
REMARK    6  A    between atoms: _12  and  _13
REMARK    7  A    between atoms: _12  and  _15
REMARK    8  A    between atoms: _15  and  _16
REMARK    9  A    between atoms: _18  and  _20
REMARK   10  A    between atoms: _20  and  _21
REMARK   11  A    between atoms: _23  and  _25
REMARK   12  A    between atoms: _25  and  _26
REMARK   13  A    between atoms: _25  and  _28
REMARK   14  A    between atoms: _28  and  _29
REMARK   15  A    between atoms: _29  and  _30
REMARK   16  A    between atoms: _35  and  _37
REMARK   17  A    between atoms: _37  and  _38
REMARK   18  A    between atoms: _37  and  _40
REMARK   19  A    between atoms: _40  and  _41
REMARK   20  A    between atoms: _41  and  _42
REMARK   21  A    between atoms: _44  and  _46
REMARK   22  A    between atoms: _46  and  _47
REMARK   23  A    between atoms: _46  and  _49
REMARK   24  A    between atoms: _49  and  _50
REMARK   25  A    between atoms: _52  and  _54
REMARK   26  A    between atoms: _54  and  _55
REMARK   27  A    between atoms: _54  and  _57
REMARK   28  A    between atoms: _57  and  _58
REMARK   29  A    between atoms: _60  and  _62
REMARK   30  A    between atoms: _62  and  _63
REMARK   31  A    between atoms: _62  and  _65
REMARK   32  A    between atoms: _65  and  _66
REMARK   33  A    between atoms: _69  and  _71
REMARK   34  A    between atoms: _71  and  _72
REMARK   35  A    between atoms: _74  and  _76
REMARK   36  A    between atoms: _76  and  _77
REMARK   37  A    between atoms: _80  and  _82
REMARK   38  A    between atoms: _82  and  _83
REMARK   39  A    between atoms: _82  and  _85
REMARK   40  A    between atoms: _85  and  _86
REMARK   41  A    between atoms: _86  and  _87
REMARK   42  A    between atoms: _90  and  _92
REMARK   43  A    between atoms: _92  and  _93
REMARK   44  A    between atoms: _92  and  _95
REMARK   45  A    between atoms: _95  and  _96
REMARK   46  A    between atoms: _98  and  _100
REMARK   47  A    between atoms: _100  and  _101
REMARK   48  A    between atoms: _100  and  _103
REMARK   49  A    between atoms: _103  and  _104
REMARK   50  A    between atoms: _109  and  _111
REMARK   51  A    between atoms: _111  and  _112
REMARK   52  A    between atoms: _111  and  _114
REMARK   53  A    between atoms: _114  and  _115
REMARK   54  A    between atoms: _115  and  _116
REMARK   55  A    between atoms: _119  and  _121
REMARK   56  A    between atoms: _121  and  _122
REMARK   57  A    between atoms: _121  and  _124
REMARK   58  A    between atoms: _124  and  _125
REMARK   59  A    between atoms: _127  and  _129
REMARK   60  A    between atoms: _129  and  _130
REMARK   61  A    between atoms: _129  and  _132
REMARK   62  A    between atoms: _132  and  _133
REMARK   63  A    between atoms: _143  and  _145
REMARK   64  A    between atoms: _145  and  _146
REMARK   65  A    between atoms: _145  and  _148
REMARK   66  A    between atoms: _148  and  _149
REMARK   67  A    between atoms: _154  and  _156
REMARK   68  A    between atoms: _156  and  _157
REMARK   69  A    between atoms: _159  and  _161
REMARK   70  A    between atoms: _161  and  _162
REMARK   71  A    between atoms: _161  and  _164
REMARK   72  A    between atoms: _164  and  _165
REMARK   73  A    between atoms: _165  and  _166
REMARK   74  A    between atoms: _168  and  _170
REMARK   75  A    between atoms: _170  and  _171
REMARK   76  A    between atoms: _170  and  _173
REMARK   77  A    between atoms: _173  and  _174
REMARK   78  A    between atoms: _177  and  _179
REMARK   79  A    between atoms: _179  and  _180
REMARK   80  A    between atoms: _183  and  _185
REMARK   81  A    between atoms: _185  and  _186
REMARK   82  A    between atoms: _185  and  _188
REMARK   83  A    between atoms: _188  and  _189
REMARK   84  A    between atoms: _192  and  _194
REMARK   85  A    between atoms: _194  and  _195
REMARK   86  A    between atoms: _194  and  _197
REMARK   87  A    between atoms: _197  and  _198
REMARK   88  A    between atoms: _200  and  _202
REMARK   89  A    between atoms: _202  and  _203
REMARK   90  A    between atoms: _202  and  _205
REMARK   91  A    between atoms: _205  and  _206
REMARK   92  A    between atoms: _209  and  _211
REMARK   93  A    between atoms: _211  and  _212
REMARK   94  A    between atoms: _215  and  _217
REMARK   95  A    between atoms: _217  and  _218
REMARK   96  A    between atoms: _217  and  _220
REMARK   97  A    between atoms: _220  and  _221
REMARK   98  A    between atoms: _221  and  _222
REMARK   99  A    between atoms: _226  and  _227
REMARK  100  A    between atoms: _232  and  _234
REMARK  101  A    between atoms: _234  and  _235
REMARK  102  A    between atoms: _234  and  _237
REMARK  103  A    between atoms: _237  and  _238
REMARK  104  A    between atoms: _241  and  _243
REMARK  105  A    between atoms: _243  and  _244
REMARK  106  A    between atoms: _243  and  _246
REMARK  107  A    between atoms: _246  and  _247
REMARK  108  A    between atoms: _250  and  _252
REMARK  109  A    between atoms: _252  and  _253
REMARK  110  A    between atoms: _252  and  _255
REMARK  111  A    between atoms: _255  and  _256
REMARK  112  A    between atoms: _258  and  _260
REMARK  113  A    between atoms: _260  and  _261
REMARK  114  A    between atoms: _260  and  _263
REMARK  115  A    between atoms: _263  and  _264
REMARK  116  A    between atoms: _266  and  _268
REMARK  117  A    between atoms: _268  and  _269
REMARK  118  A    between atoms: _271  and  _273
REMARK  119  A    between atoms: _273  and  _274
REMARK  120  A    between atoms: _276  and  _278
REMARK  121  A    between atoms: _278  and  _279
REMARK  122  A    between atoms: _278  and  _281
REMARK  123  A    between atoms: _281  and  _282
REMARK  124  A    between atoms: _285  and  _287
REMARK  125  A    between atoms: _287  and  _288
REMARK  126  A    between atoms: _287  and  _290
REMARK  127  A    between atoms: _290  and  _291
REMARK  128  A    between atoms: _291  and  _292
REMARK  129  A    between atoms: _295  and  _297
REMARK  130  A    between atoms: _297  and  _298
REMARK  131  A    between atoms: _301  and  _303
REMARK  132  A    between atoms: _303  and  _304
REMARK  133  A    between atoms: _303  and  _306
REMARK  134  A    between atoms: _306  and  _307
REMARK  135  A    between atoms: _307  and  _308
REMARK  136  A    between atoms: _313  and  _315
REMARK  137  A    between atoms: _315  and  _316
REMARK  138  A    between atoms: _315  and  _318
REMARK  139  A    between atoms: _318  and  _319
REMARK  140  A    between atoms: _322  and  _324
REMARK  141  A    between atoms: _324  and  _325
REMARK  142  A    between atoms: _327  and  _329
REMARK  143  A    between atoms: _329  and  _330
REMARK  144  A    between atoms: _329  and  _332
REMARK  145  A    between atoms: _332  and  _333
REMARK  146  A    between atoms: _336  and  _338
REMARK  147  A    between atoms: _338  and  _339
REMARK  148  A    between atoms: _338  and  _341
REMARK  149  A    between atoms: _341  and  _342
REMARK  150  A    between atoms: _345  and  _347
REMARK  151  A    between atoms: _347  and  _348
REMARK  152  A    between atoms: _347  and  _350
REMARK  153  A    between atoms: _350  and  _351
REMARK  154  A    between atoms: _353  and  _355
REMARK  155  A    between atoms: _355  and  _356
REMARK  156  A    between atoms: _355  and  _358
REMARK  157  A    between atoms: _358  and  _359
REMARK  158  A    between atoms: _359  and  _360
REMARK  159  A    between atoms: _360  and  _361
REMARK  160  A    between atoms: _361  and  _362
REMARK  161  A    between atoms: _367  and  _368
REMARK  162  A    between atoms: _373  and  _375
REMARK  163  A    between atoms: _375  and  _376
REMARK  164  A    between atoms: _375  and  _378
REMARK  165  A    between atoms: _378  and  _379
REMARK  166  A    between atoms: _382  and  _384
REMARK  167  A    between atoms: _384  and  _385
REMARK  168  A    between atoms: _388  and  _390
REMARK  169  A    between atoms: _390  and  _391
REMARK  170  A    between atoms: _390  and  _393
REMARK  171  A    between atoms: _393  and  _394
REMARK  172  A    between atoms: _399  and  _401
REMARK  173  A    between atoms: _401  and  _402
REMARK  174  A    between atoms: _401  and  _404
REMARK  175  A    between atoms: _407  and  _409
REMARK  176  A    between atoms: _409  and  _410
REMARK  177  A    between atoms: _409  and  _412
REMARK  178  A    between atoms: _412  and  _413
REMARK  179  A    between atoms: _413  and  _414
REMARK  180  A    between atoms: _414  and  _415
REMARK  181  A    between atoms: _424  and  _426
REMARK  182  A    between atoms: _426  and  _427
REMARK  183  A    between atoms: _426  and  _429
REMARK  184  A    between atoms: _429  and  _430
REMARK  185  A    between atoms: _435  and  _437
REMARK  186  A    between atoms: _437  and  _438
REMARK  187  A    between atoms: _437  and  _440
REMARK  188  A    between atoms: _440  and  _441
REMARK  189  A    between atoms: _447  and  _449
REMARK  190  A    between atoms: _449  and  _450
REMARK  191  A    between atoms: _449  and  _452
REMARK  192  A    between atoms: _452  and  _453
REMARK  193  A    between atoms: _455  and  _457
REMARK  194  A    between atoms: _457  and  _458
REMARK  195  A    between atoms: _457  and  _460
REMARK  196  A    between atoms: _460  and  _461
REMARK  197  A    between atoms: _461  and  _462
REMARK  198  A    between atoms: _465  and  _467
REMARK  199  A    between atoms: _467  and  _468
REMARK  200  A    between atoms: _467  and  _470
REMARK  201  A    between atoms: _470  and  _471
REMARK  202  A    between atoms: _473  and  _475
REMARK  203  A    between atoms: _475  and  _476
REMARK  204  A    between atoms: _475  and  _478
REMARK  205  A    between atoms: _478  and  _479
REMARK  206  A    between atoms: _479  and  _480
REMARK  207  A    between atoms: _483  and  _485
REMARK  208  A    between atoms: _485  and  _486
REMARK  209  A    between atoms: _485  and  _488
REMARK  210  A    between atoms: _488  and  _489
REMARK  211  A    between atoms: _492  and  _494
REMARK  212  A    between atoms: _494  and  _495
REMARK  213  A    between atoms: _494  and  _497
REMARK  214  A    between atoms: _497  and  _498
REMARK  215  A    between atoms: _504  and  _506
REMARK  216  A    between atoms: _506  and  _507
REMARK  217  A    between atoms: _506  and  _509
REMARK  218  A    between atoms: _509  and  _510
REMARK  219  A    between atoms: _515  and  _516
REMARK  220  A    between atoms: _518  and  _520
REMARK  221  A    between atoms: _520  and  _521
REMARK  222  A    between atoms: _520  and  _523
REMARK  223  A    between atoms: _523  and  _524
REMARK  224  A    between atoms: _527  and  _529
REMARK  225  A    between atoms: _529  and  _530
REMARK  226  A    between atoms: _529  and  _532
REMARK  227  A    between atoms: _532  and  _533
REMARK  228  A    between atoms: _536  and  _538
REMARK  229  A    between atoms: _538  and  _539
REMARK  230  A    between atoms: _538  and  _541
REMARK  231  A    between atoms: _541  and  _542
REMARK  232  A    between atoms: _547  and  _549
REMARK  233  A    between atoms: _549  and  _550
REMARK  234  A    between atoms: _549  and  _552
REMARK                            x       y       z     vdW  Elec       q    Type
REMARK                         _______ _______ _______ _____ _____    ______ ____
ROOT
ATOM      1  CA  GLU A   5      24.985  48.153  10.818  0.00  0.00    +0.149 C 
ENDROOT
BRANCH   1   3
ATOM      2  C   ALA A   4      23.947  50.056  12.034  0.00  0.00    +0.241 C 
ATOM      3  N   GLU A   5      24.180  48.737  11.894  0.00  0.00    -0.297 N 
ATOM      4  H   GLU A   5      23.762  48.092  12.594  0.00  0.00    +0.150 HD
ATOM      5  O   ALA A   4      24.434  50.905  11.306  0.00  0.00    -0.273 OA
BRANCH   2   6
ATOM      6  CA  ALA A   4      23.005  50.444  13.145  0.00  0.00    +0.149 C 
ATOM      7  CB  ALA A   4      23.679  50.341  14.506  0.00  0.00    +0.031 C 
BRANCH   6   9
ATOM      8  C   GLY A   3      21.018  49.453  12.068  0.00  0.00    +0.243 C 
ATOM      9  N   ALA A   4      21.873  49.513  13.105  0.00  0.00    -0.297 N 
ATOM     10  H   ALA A   4      21.725  48.873  13.911  0.00  0.00    +0.150 HD
ATOM     11  O   GLY A   3      21.101  50.196  11.080  0.00  0.00    -0.273 OA
BRANCH   8  12
ATOM     12  CA  GLY A   3      19.895  48.387  12.172  0.00  0.00    +0.176 C 
BRANCH  12  14
ATOM     13  C   THR A   2      21.322  46.314  11.959  0.00  0.00    +0.243 C 
ATOM     14  N   GLY A   3      20.381  47.024  12.620  0.00  0.00    -0.295 N 
ATOM     15  H   GLY A   3      19.969  46.613  13.482  0.00  0.00    +0.150 HD
ATOM     16  O   THR A   2      21.928  46.747  10.929  0.00  0.00    -0.273 OA
BRANCH  13  17
ATOM     17  CA  THR A   2      21.707  44.979  12.606  0.00  0.00    +0.176 C 
BRANCH  17  20
ATOM     18  C   SER A   1      21.878  42.792  11.579  0.00  0.00    +0.241 C 
ATOM     19  O   SER A   1      20.834  42.455  12.107  0.00  0.00    -0.274 OA
ATOM     20  N   THR A   2      22.412  44.002  11.753  0.00  0.00    -0.295 N 
ATOM     21  H   THR A   2      23.311  44.253  11.295  0.00  0.00    +0.150 HD
BRANCH  18  22
ATOM     22  CA  SER A   1      22.581  41.840  10.701  0.00  0.00    +0.174 C 
BRANCH  22  23
ATOM     23  N   SER A   1      23.046  42.375   9.456  0.00  0.00    -0.236 NA
ATOM     24  H   SER A   1      23.752  43.139   9.449  0.00  0.00    +0.142 HD
ENDBRANCH  22  23
BRANCH  22  25
ATOM     25  CB  SER A   1      23.732  41.200  11.438  0.00  0.00    +0.163 C 
BRANCH  25  26
ATOM     26  OG  SER A   1      24.377  40.288  10.576  0.00  0.00    -0.380 OA
ATOM     27  H   SER A   1      23.733  39.592  10.292  0.00  0.00    +0.211 HD
ENDBRANCH  25  26
ENDBRANCH  22  25
ENDBRANCH  18  22
ENDBRANCH  17  20
BRANCH  17  28
ATOM     28  CB  THR A   2      22.504  45.273  13.969  0.00  0.00    +0.137 C 
ATOM     29  CG2 THR A   2      23.013  43.949  14.655  0.00  0.00    +0.034 C 
BRANCH  28  30
ATOM     30  OG1 THR A   2      23.609  46.125  13.689  0.00  0.00    -0.382 OA
ATOM     31  HG1 THR A   2      24.103  46.309  14.527  0.00  0.00    +0.210 HD
ENDBRANCH  28  30
ENDBRANCH  17  28
ENDBRANCH  13  17
ENDBRANCH  12  14
ENDBRANCH   8  12
ENDBRANCH   6   9
ENDBRANCH   2   6
ENDBRANCH   1   3
BRANCH   1  32
ATOM     32  C   GLU A   5      24.392  48.635   9.507  0.00  0.00    +0.241 C 
ATOM     33  N   SER A   6      23.095  48.386   9.294  0.00  0.00    -0.295 N 
ATOM     34  H   SER A   6      22.550  47.855  10.003  0.00  0.00    +0.150 HD
ATOM     35  O   GLU A   5      25.061  49.304   8.749  0.00  0.00    -0.273 OA
BRANCH  33  36
ATOM     36  CA  SER A   6      22.440  48.848   8.086  0.00  0.00    +0.178 C 
BRANCH  36  37
ATOM     37  C   SER A   6      22.721  50.347   7.928  0.00  0.00    +0.243 C 
ATOM     38  N   ASN A   7      22.499  51.148   8.951  0.00  0.00    -0.297 N 
ATOM     39  H   ASN A   7      22.126  50.773   9.847  0.00  0.00    +0.150 HD
ATOM     40  O   SER A   6      23.253  50.790   6.908  0.00  0.00    -0.273 OA
BRANCH  38  41
ATOM     41  CA  ASN A   7      22.797  52.625   8.797  0.00  0.00    +0.158 C 
BRANCH  41  42
ATOM     42  C   ASN A   7      24.248  52.986   8.509  0.00  0.00    +0.241 C 
ATOM     43  N   GLU A   8      25.194  52.243   9.091  0.00  0.00    -0.298 N 
ATOM     44  H   GLU A   8      24.917  51.482   9.744  0.00  0.00    +0.150 HD
ATOM     45  O   ASN A   7      24.505  53.930   7.792  0.00  0.00    -0.273 OA
BRANCH  43  46
ATOM     46  CA  GLU A   8      26.605  52.481   8.827  0.00  0.00    +0.137 C 
BRANCH  46  47
ATOM     47  C   GLU A   8      26.911  52.194   7.290  0.00  0.00    +0.227 C 
ATOM     48  O   GLU A   8      27.622  52.967   6.591  0.00  0.00    -0.286 OA
ENDBRANCH  46  47
BRANCH  46  49
ATOM     49  CB  GLU A   8      27.446  51.533   9.712  0.00  0.00    +0.039 C 
BRANCH  49  50
ATOM     50  CG  GLU A   8      27.334  51.857  11.271  0.00  0.00    +0.116 C 
BRANCH  50  51
ATOM     51  CD  GLU A   8      28.435  52.755  11.811  0.00  0.00    +0.365 C 
ATOM     52  OE2 GLU A   8      28.389  53.140  13.016  0.00  0.00    -0.246 OA
ATOM     53  OE1 GLU A   8      29.313  53.134  11.011  0.00  0.00    -0.246 OA
ENDBRANCH  50  51
ENDBRANCH  49  50
ENDBRANCH  46  49
ENDBRANCH  43  46
ENDBRANCH  41  42
BRANCH  41  54
ATOM     54  CB  ASN A   7      22.209  53.529   9.925  0.00  0.00    +0.114 C 
BRANCH  54  55
ATOM     55  CG  ASN A   7      20.667  53.416  10.047  0.00  0.00    +0.222 C 
ATOM     56  ND2 ASN A   7      20.145  53.196  11.288  0.00  0.00    -0.329 N 
ATOM     57 HD21 ASN A   7      20.776  53.120  12.111  0.00  0.00    +0.145 HD
ATOM     58 HD22 ASN A   7      19.116  53.105  11.411  0.00  0.00    +0.145 HD
ATOM     59  OD1 ASN A   7      19.962  53.515   9.033  0.00  0.00    -0.275 OA
ENDBRANCH  54  55
ENDBRANCH  41  54
ENDBRANCH  38  41
ENDBRANCH  36  37
BRANCH  36  60
ATOM     60  CB  SER A   6      20.919  48.460   8.043  0.00  0.00    +0.166 C 
BRANCH  60  61
ATOM     61  OG  SER A   6      20.149  49.243   8.880  0.00  0.00    -0.380 OA
ATOM     62  H   SER A   6      20.465  49.137   9.812  0.00  0.00    +0.211 HD
ENDBRANCH  60  61
ENDBRANCH  36  60
ENDBRANCH  33  36
ENDBRANCH   1  32
BRANCH   1  63
ATOM     63  CB  GLU A   5      24.882  46.643  10.899  0.00  0.00    +0.041 C 
BRANCH  63  64
ATOM     64  CG  GLU A   5      26.089  45.936  10.360  0.00  0.00    +0.116 C 
BRANCH  64  65
ATOM     65  CD  GLU A   5      25.914  44.407  10.299  0.00  0.00    +0.365 C 
ATOM     66  OE2 GLU A   5      24.764  43.854  10.470  0.00  0.00    -0.246 OA
ATOM     67  OE1 GLU A   5      26.950  43.758  10.038  0.00  0.00    -0.246 OA
ENDBRANCH  64  65
ENDBRANCH  63  64
ENDBRANCH   1  63
TORSDOF 30
REMARK  Name = ../refined-set-2016/1m0n/1m0n_pocket.pdb
REMARK  234 active torsions:
REMARK  status: ('A' for Active; 'I' for Inactive)
REMARK    1  A    between atoms: _1  and  _3
REMARK    2  A    between atoms: _3  and  _4
REMARK    3  A    between atoms: _3  and  _6
REMARK    4  A    between atoms: _6  and  _7
REMARK    5  A    between atoms: _10  and  _12
REMARK    6  A    between atoms: _12  and  _13
REMARK    7  A    between atoms: _12  and  _15
REMARK    8  A    between atoms: _15  and  _16
REMARK    9  A    between atoms: _18  and  _20
REMARK   10  A    between atoms: _20  and  _21
REMARK   11  A    between atoms: _23  and  _25
REMARK   12  A    between atoms: _25  and  _26
REMARK   13  A    between atoms: _25  and  _28
REMARK   14  A    between atoms: _28  and  _29
REMARK   15  A    between atoms: _29  and  _30
REMARK   16  A    between atoms: _35  and  _37
REMARK   17  A    between atoms: _37  and  _38
REMARK   18  A    between atoms: _37  and  _40
REMARK   19  A    between atoms: _40  and  _41
REMARK   20  A    between atoms: _41  and  _42
REMARK   21  A    between atoms: _44  and  _46
REMARK   22  A    between atoms: _46  and  _47
REMARK   23  A    between atoms: _46  and  _49
REMARK   24  A    between atoms: _49  and  _50
REMARK   25  A    between atoms: _52  and  _54
REMARK   26  A    between atoms: _54  and  _55
REMARK   27  A    between atoms: _54  and  _57
REMARK   28  A    between atoms: _57  and  _58
REMARK   29  A    between atoms: _60  and  _62
REMARK   30  A    between atoms: _62  and  _63
REMARK   31  A    between atoms: _62  and  _65
REMARK   32  A    between atoms: _65  and  _66
REMARK   33  A    between atoms: _69  and  _71
REMARK   34  A    between atoms: _71  and  _72
REMARK   35  A    between atoms: _74  and  _76
REMARK   36  A    between atoms: _76  and  _77
REMARK   37  A    between atoms: _80  and  _82
REMARK   38  A    between atoms: _82  and  _83
REMARK   39  A    between atoms: _82  and  _85
REMARK   40  A    between atoms: _85  and  _86
REMARK   41  A    between atoms: _86  and  _87
REMARK   42  A    between atoms: _90  and  _92
REMARK   43  A    between atoms: _92  and  _93
REMARK   44  A    between atoms: _92  and  _95
REMARK   45  A    between atoms: _95  and  _96
REMARK   46  A    between atoms: _98  and  _100
REMARK   47  A    between atoms: _100  and  _101
REMARK   48  A    between atoms: _100  and  _103
REMARK   49  A    between atoms: _103  and  _104
REMARK   50  A    between atoms: _109  and  _111
REMARK   51  A    between atoms: _111  and  _112
REMARK   52  A    between atoms: _111  and  _114
REMARK   53  A    between atoms: _114  and  _115
REMARK   54  A    between atoms: _115  and  _116
REMARK   55  A    between atoms: _119  and  _121
REMARK   56  A    between atoms: _121  and  _122
REMARK   57  A    between atoms: _121  and  _124
REMARK   58  A    between atoms: _124  and  _125
REMARK   59  A    between atoms: _127  and  _129
REMARK   60  A    between atoms: _129  and  _130
REMARK   61  A    between atoms: _129  and  _132
REMARK   62  A    between atoms: _132  and  _133
REMARK   63  A    between atoms: _143  and  _145
REMARK   64  A    between atoms: _145  and  _146
REMARK   65  A    between atoms: _145  and  _148
REMARK   66  A    between atoms: _148  and  _149
REMARK   67  A    between atoms: _154  and  _156
REMARK   68  A    between atoms: _156  and  _157
REMARK   69  A    between atoms: _159  and  _161
REMARK   70  A    between atoms: _161  and  _162
REMARK   71  A    between atoms: _161  and  _164
REMARK   72  A    between atoms: _164  and  _165
REMARK   73  A    between atoms: _165  and  _166
REMARK   74  A    between atoms: _168  and  _170
REMARK   75  A    between atoms: _170  and  _171
REMARK   76  A    between atoms: _170  and  _173
REMARK   77  A    between atoms: _173  and  _174
REMARK   78  A    between atoms: _177  and  _179
REMARK   79  A    between atoms: _179  and  _180
REMARK   80  A    between atoms: _183  and  _185
REMARK   81  A    between atoms: _185  and  _186
REMARK   82  A    between atoms: _185  and  _188
REMARK   83  A    between atoms: _188  and  _189
REMARK   84  A    between atoms: _192  and  _194
REMARK   85  A    between atoms: _194  and  _195
REMARK   86  A    between atoms: _194  and  _197
REMARK   87  A    between atoms: _197  and  _198
REMARK   88  A    between atoms: _200  and  _202
REMARK   89  A    between atoms: _202  and  _203
REMARK   90  A    between atoms: _202  and  _205
REMARK   91  A    between atoms: _205  and  _206
REMARK   92  A    between atoms: _209  and  _211
REMARK   93  A    between atoms: _211  and  _212
REMARK   94  A    between atoms: _215  and  _217
REMARK   95  A    between atoms: _217  and  _218
REMARK   96  A    between atoms: _217  and  _220
REMARK   97  A    between atoms: _220  and  _221
REMARK   98  A    between atoms: _221  and  _222
REMARK   99  A    between atoms: _226  and  _227
REMARK  100  A    between atoms: _232  and  _234
REMARK  101  A    between atoms: _234  and  _235
REMARK  102  A    between atoms: _234  and  _237
REMARK  103  A    between atoms: _237  and  _238
REMARK  104  A    between atoms: _241  and  _243
REMARK  105  A    between atoms: _243  and  _244
REMARK  106  A    between atoms: _243  and  _246
REMARK  107  A    between atoms: _246  and  _247
REMARK  108  A    between atoms: _250  and  _252
REMARK  109  A    between atoms: _252  and  _253
REMARK  110  A    between atoms: _252  and  _255
REMARK  111  A    between atoms: _255  and  _256
REMARK  112  A    between atoms: _258  and  _260
REMARK  113  A    between atoms: _260  and  _261
REMARK  114  A    between atoms: _260  and  _263
REMARK  115  A    between atoms: _263  and  _264
REMARK  116  A    between atoms: _266  and  _268
REMARK  117  A    between atoms: _268  and  _269
REMARK  118  A    between atoms: _271  and  _273
REMARK  119  A    between atoms: _273  and  _274
REMARK  120  A    between atoms: _276  and  _278
REMARK  121  A    between atoms: _278  and  _279
REMARK  122  A    between atoms: _278  and  _281
REMARK  123  A    between atoms: _281  and  _282
REMARK  124  A    between atoms: _285  and  _287
REMARK  125  A    between atoms: _287  and  _288
REMARK  126  A    between atoms: _287  and  _290
REMARK  127  A    between atoms: _290  and  _291
REMARK  128  A    between atoms: _291  and  _292
REMARK  129  A    between atoms: _295  and  _297
REMARK  130  A    between atoms: _297  and  _298
REMARK  131  A    between atoms: _301  and  _303
REMARK  132  A    between atoms: _303  and  _304
REMARK  133  A    between atoms: _303  and  _306
REMARK  134  A    between atoms: _306  and  _307
REMARK  135  A    between atoms: _307  and  _308
REMARK  136  A    between atoms: _313  and  _315
REMARK  137  A    between atoms: _315  and  _316
REMARK  138  A    between atoms: _315  and  _318
REMARK  139  A    between atoms: _318  and  _319
REMARK  140  A    between atoms: _322  and  _324
REMARK  141  A    between atoms: _324  and  _325
REMARK  142  A    between atoms: _327  and  _329
REMARK  143  A    between atoms: _329  and  _330
REMARK  144  A    between atoms: _329  and  _332
REMARK  145  A    between atoms: _332  and  _333
REMARK  146  A    between atoms: _336  and  _338
REMARK  147  A    between atoms: _338  and  _339
REMARK  148  A    between atoms: _338  and  _341
REMARK  149  A    between atoms: _341  and  _342
REMARK  150  A    between atoms: _345  and  _347
REMARK  151  A    between atoms: _347  and  _348
REMARK  152  A    between atoms: _347  and  _350
REMARK  153  A    between atoms: _350  and  _351
REMARK  154  A    between atoms: _353  and  _355
REMARK  155  A    between atoms: _355  and  _356
REMARK  156  A    between atoms: _355  and  _358
REMARK  157  A    between atoms: _358  and  _359
REMARK  158  A    between atoms: _359  and  _360
REMARK  159  A    between atoms: _360  and  _361
REMARK  160  A    between atoms: _361  and  _362
REMARK  161  A    between atoms: _367  and  _368
REMARK  162  A    between atoms: _373  and  _375
REMARK  163  A    between atoms: _375  and  _376
REMARK  164  A    between atoms: _375  and  _378
REMARK  165  A    between atoms: _378  and  _379
REMARK  166  A    between atoms: _382  and  _384
REMARK  167  A    between atoms: _384  and  _385
REMARK  168  A    between atoms: _388  and  _390
REMARK  169  A    between atoms: _390  and  _391
REMARK  170  A    between atoms: _390  and  _393
REMARK  171  A    between atoms: _393  and  _394
REMARK  172  A    between atoms: _399  and  _401
REMARK  173  A    between atoms: _401  and  _402
REMARK  174  A    between atoms: _401  and  _404
REMARK  175  A    between atoms: _407  and  _409
REMARK  176  A    between atoms: _409  and  _410
REMARK  177  A    between atoms: _409  and  _412
REMARK  178  A    between atoms: _412  and  _413
REMARK  179  A    between atoms: _413  and  _414
REMARK  180  A    between atoms: _414  and  _415
REMARK  181  A    between atoms: _424  and  _426
REMARK  182  A    between atoms: _426  and  _427
REMARK  183  A    between atoms: _426  and  _429
REMARK  184  A    between atoms: _429  and  _430
REMARK  185  A    between atoms: _435  and  _437
REMARK  186  A    between atoms: _437  and  _438
REMARK  187  A    between atoms: _437  and  _440
REMARK  188  A    between atoms: _440  and  _441
REMARK  189  A    between atoms: _447  and  _449
REMARK  190  A    between atoms: _449  and  _450
REMARK  191  A    between atoms: _449  and  _452
REMARK  192  A    between atoms: _452  and  _453
REMARK  193  A    between atoms: _455  and  _457
REMARK  194  A    between atoms: _457  and  _458
REMARK  195  A    between atoms: _457  and  _460
REMARK  196  A    between atoms: _460  and  _461
REMARK  197  A    between atoms: _461  and  _462
REMARK  198  A    between atoms: _465  and  _467
REMARK  199  A    between atoms: _467  and  _468
REMARK  200  A    between atoms: _467  and  _470
REMARK  201  A    between atoms: _470  and  _471
REMARK  202  A    between atoms: _473  and  _475
REMARK  203  A    between atoms: _475  and  _476
REMARK  204  A    between atoms: _475  and  _478
REMARK  205  A    between atoms: _478  and  _479
REMARK  206  A    between atoms: _479  and  _480
REMARK  207  A    between atoms: _483  and  _485
REMARK  208  A    between atoms: _485  and  _486
REMARK  209  A    between atoms: _485  and  _488
REMARK  210  A    between atoms: _488  and  _489
REMARK  211  A    between atoms: _492  and  _494
REMARK  212  A    between atoms: _494  and  _495
REMARK  213  A    between atoms: _494  and  _497
REMARK  214  A    between atoms: _497  and  _498
REMARK  215  A    between atoms: _504  and  _506
REMARK  216  A    between atoms: _506  and  _507
REMARK  217  A    between atoms: _506  and  _509
REMARK  218  A    between atoms: _509  and  _510
REMARK  219  A    between atoms: _515  and  _516
REMARK  220  A    between atoms: _518  and  _520
REMARK  221  A    between atoms: _520  and  _521
REMARK  222  A    between atoms: _520  and  _523
REMARK  223  A    between atoms: _523  and  _524
REMARK  224  A    between atoms: _527  and  _529
REMARK  225  A    between atoms: _529  and  _530
REMARK  226  A    between atoms: _529  and  _532
REMARK  227  A    between atoms: _532  and  _533
REMARK  228  A    between atoms: _536  and  _538
REMARK  229  A    between atoms: _538  and  _539
REMARK  230  A    between atoms: _538  and  _541
REMARK  231  A    between atoms: _541  and  _542
REMARK  232  A    between atoms: _547  and  _549
REMARK  233  A    between atoms: _549  and  _550
REMARK  234  A    between atoms: _549  and  _552
REMARK                            x       y       z     vdW  Elec       q    Type
REMARK                         _______ _______ _______ _____ _____    ______ ____
ROOT
ATOM      1  CA  HIS A   3      20.053  55.344  14.420  0.00  0.00    +0.155 C 
ENDROOT
BRANCH   1   3
ATOM      2  C   TRP A   2      18.328  56.507  15.683  0.00  0.00    +0.241 C 
ATOM      3  N   HIS A   3      19.627  56.245  15.495  0.00  0.00    -0.297 N 
ATOM      4  H   HIS A   3      20.338  56.683  16.115  0.00  0.00    +0.150 HD
ATOM      5  O   TRP A   2      17.413  55.969  15.020  0.00  0.00    -0.273 OA
BRANCH   2   6
ATOM      6  CA  TRP A   2      17.970  57.368  16.849  0.00  0.00    +0.153 C 
BRANCH   6   9
ATOM      7  C   SER A   1      17.418  59.794  16.890  0.00  0.00    +0.241 C 
ATOM      8  O   SER A   1      18.106  60.047  17.914  0.00  0.00    -0.274 OA
ATOM      9  N   TRP A   2      17.259  58.573  16.352  0.00  0.00    -0.297 N 
ATOM     10  H   TRP A   2      16.607  58.467  15.549  0.00  0.00    +0.150 HD
BRANCH   7  11
ATOM     11  CA  SER A   1      16.845  60.905  16.080  0.00  0.00    +0.174 C 
BRANCH  11  12
ATOM     12  N   SER A   1      16.705  62.176  16.806  0.00  0.00    -0.236 NA
ATOM     13  H   SER A   1      17.386  62.938  16.616  0.00  0.00    +0.142 HD
ENDBRANCH  11  12
BRANCH  11  14
ATOM     14  CB  SER A   1      17.848  61.123  14.949  0.00  0.00    +0.163 C 
BRANCH  14  15
ATOM     15  OG  SER A   1      19.129  61.269  15.517  0.00  0.00    -0.380 OA
ATOM     16  H   SER A   1      19.794  61.412  14.797  0.00  0.00    +0.211 HD
ENDBRANCH  14  15
ENDBRANCH  11  14
ENDBRANCH   7  11
ENDBRANCH   6   9
BRANCH   6  17
ATOM     17  CB  TRP A   2      17.139  56.469  17.739  0.00  0.00    +0.057 C 
BRANCH  17  18
ATOM     18  CG  TRP A   2      17.932  55.330  18.305  0.00  0.00    -0.002 A 
ATOM     19  CD2 TRP A   2      18.764  55.377  19.466  0.00  0.00    +0.013 A 
ATOM     20  CE3 TRP A   2      19.083  56.393  20.403  0.00  0.00    +0.001 A 
ATOM     21  CZ3 TRP A   2      19.972  56.079  21.447  0.00  0.00    +0.000 A 
ATOM     22  CH2 TRP A   2      20.484  54.756  21.614  0.00  0.00    +0.001 A 
ATOM     23  CZ2 TRP A   2      20.214  53.766  20.706  0.00  0.00    +0.017 A 
ATOM     24  CE2 TRP A   2      19.367  54.090  19.611  0.00  0.00    +0.056 A 
ATOM     25  NE1 TRP A   2      18.953  53.313  18.562  0.00  0.00    -0.352 N 
ATOM     26  HE1 TRP A   2      19.246  52.333  18.374  0.00  0.00    +0.166 HD
ATOM     27  CD1 TRP A   2      18.070  54.068  17.791  0.00  0.00    +0.068 A 
ENDBRANCH  17  18
ENDBRANCH   6  17
ENDBRANCH   2   6
ENDBRANCH   1   3
BRANCH   1  28
ATOM     28  C   HIS A   3      20.889  54.118  14.830  0.00  0.00    +0.241 C 
ATOM     29  N   GLY A   4      21.366  54.109  16.061  0.00  0.00    -0.295 N 
ATOM     30  H   GLY A   4      21.186  54.917  16.690  0.00  0.00    +0.150 HD
ATOM     31  O   HIS A   3      20.991  53.147  14.097  0.00  0.00    -0.273 OA
BRANCH  29  32
ATOM     32  CA  GLY A   4      22.138  52.981  16.541  0.00  0.00    +0.176 C 
BRANCH  32  33
ATOM     33  C   GLY A   4      23.240  53.424  17.535  0.00  0.00    +0.243 C 
ATOM     34  N   MET A   5      23.883  52.446  18.133  0.00  0.00    -0.297 N 
ATOM     35  H   MET A   5      23.644  51.463  17.893  0.00  0.00    +0.150 HD
ATOM     36  O   GLY A   4      23.486  54.609  17.766  0.00  0.00    -0.273 OA
BRANCH  34  37
ATOM     37  CA  MET A   5      24.928  52.701  19.129  0.00  0.00    +0.149 C 
BRANCH  37  38
ATOM     38  C   MET A   5      26.309  52.851  18.533  0.00  0.00    +0.241 C 
ATOM     39  O   MET A   5      27.169  53.324  19.206  0.00  0.00    -0.273 OA
ATOM     40  N   THR A   6      26.525  52.312  17.319  0.00  0.00    -0.296 N 
ATOM     41  H   THR A   6      25.722  51.850  16.847  0.00  0.00    +0.150 HD
BRANCH  40  42
ATOM     42  CA  THR A   6      27.825  52.329  16.606  0.00  0.00    +0.164 C 
BRANCH  42  43
ATOM     43  CB  THR A   6      28.048  51.178  15.644  0.00  0.00    +0.136 C 
ATOM     44  CG2 THR A   6      27.474  49.902  16.221  0.00  0.00    +0.034 C 
BRANCH  43  45
ATOM     45  OG1 THR A   6      27.369  51.447  14.433  0.00  0.00    -0.382 OA
ATOM     46  HG1 THR A   6      27.720  52.284  14.038  0.00  0.00    +0.210 HD
ENDBRANCH  43  45
ENDBRANCH  42  43
BRANCH  42  47
ATOM     47  C   THR A   6      28.180  53.532  15.932  0.00  0.00    +0.229 C 
ATOM     48  O   THR A   6      27.337  54.356  15.511  0.00  0.00    -0.286 OA
ENDBRANCH  42  47
ENDBRANCH  40  42
ENDBRANCH  37  38
BRANCH  37  49
ATOM     49  CB  MET A   5      24.992  51.502  20.100  0.00  0.00    +0.041 C 
BRANCH  49  50
ATOM     50  CG  MET A   5      23.730  51.291  20.953  0.00  0.00    +0.060 C 
BRANCH  50  51
ATOM     51  SD  MET A   5      23.453  52.763  22.084  0.00  0.00    -0.139 S 
ATOM     52  CE  MET A   5      25.250  53.440  22.513  0.00  0.00    +0.069 C 
ENDBRANCH  50  51
ENDBRANCH  49  50
ENDBRANCH  37  49
ENDBRANCH  34  37
ENDBRANCH  32  33
ENDBRANCH  29  32
ENDBRANCH   1  28
BRANCH   1  53
ATOM     53  CB  HIS A   3      20.704  56.165  13.299  0.00  0.00    +0.076 C 
BRANCH  53  54
ATOM     54  CG  HIS A   3      19.800  57.230  12.727  0.00  0.00    +0.082 A 
ATOM     55  CD2 HIS A   3      19.795  58.583  12.888  0.00  0.00    +0.115 A 
ATOM     56  NE2 HIS A   3      18.723  59.072  12.174  0.00  0.00    -0.221 NA
ATOM     57  CE1 HIS A   3      18.078  58.057  11.606  0.00  0.00    +0.199 A 
ATOM     58  ND1 HIS A   3      18.685  56.927  11.947  0.00  0.00    -0.227 NA
ENDBRANCH  53  54
ENDBRANCH   1  53
TORSDOF 23
REMARK  Name = ../refined-set-2016/1m0n/1m0n_pocket.pdb
REMARK  234 active torsions:
REMARK  status: ('A' for Active; 'I' for Inactive)
REMARK    1  A    between atoms: _1  and  _3
REMARK    2  A    between atoms: _3  and  _4
REMARK    3  A    between atoms: _3  and  _6
REMARK    4  A    between atoms: _6  and  _7
REMARK    5  A    between atoms: _10  and  _12
REMARK    6  A    between atoms: _12  and  _13
REMARK    7  A    between atoms: _12  and  _15
REMARK    8  A    between atoms: _15  and  _16
REMARK    9  A    between atoms: _18  and  _20
REMARK   10  A    between atoms: _20  and  _21
REMARK   11  A    between atoms: _23  and  _25
REMARK   12  A    between atoms: _25  and  _26
REMARK   13  A    between atoms: _25  and  _28
REMARK   14  A    between atoms: _28  and  _29
REMARK   15  A    between atoms: _29  and  _30
REMARK   16  A    between atoms: _35  and  _37
REMARK   17  A    between atoms: _37  and  _38
REMARK   18  A    between atoms: _37  and  _40
REMARK   19  A    between atoms: _40  and  _41
REMARK   20  A    between atoms: _41  and  _42
REMARK   21  A    between atoms: _44  and  _46
REMARK   22  A    between atoms: _46  and  _47
REMARK   23  A    between atoms: _46  and  _49
REMARK   24  A    between atoms: _49  and  _50
REMARK   25  A    between atoms: _52  and  _54
REMARK   26  A    between atoms: _54  and  _55
REMARK   27  A    between atoms: _54  and  _57
REMARK   28  A    between atoms: _57  and  _58
REMARK   29  A    between atoms: _60  and  _62
REMARK   30  A    between atoms: _62  and  _63
REMARK   31  A    between atoms: _62  and  _65
REMARK   32  A    between atoms: _65  and  _66
REMARK   33  A    between atoms: _69  and  _71
REMARK   34  A    between atoms: _71  and  _72
REMARK   35  A    between atoms: _74  and  _76
REMARK   36  A    between atoms: _76  and  _77
REMARK   37  A    between atoms: _80  and  _82
REMARK   38  A    between atoms: _82  and  _83
REMARK   39  A    between atoms: _82  and  _85
REMARK   40  A    between atoms: _85  and  _86
REMARK   41  A    between atoms: _86  and  _87
REMARK   42  A    between atoms: _90  and  _92
REMARK   43  A    between atoms: _92  and  _93
REMARK   44  A    between atoms: _92  and  _95
REMARK   45  A    between atoms: _95  and  _96
REMARK   46  A    between atoms: _98  and  _100
REMARK   47  A    between atoms: _100  and  _101
REMARK   48  A    between atoms: _100  and  _103
REMARK   49  A    between atoms: _103  and  _104
REMARK   50  A    between atoms: _109  and  _111
REMARK   51  A    between atoms: _111  and  _112
REMARK   52  A    between atoms: _111  and  _114
REMARK   53  A    between atoms: _114  and  _115
REMARK   54  A    between atoms: _115  and  _116
REMARK   55  A    between atoms: _119  and  _121
REMARK   56  A    between atoms: _121  and  _122
REMARK   57  A    between atoms: _121  and  _124
REMARK   58  A    between atoms: _124  and  _125
REMARK   59  A    between atoms: _127  and  _129
REMARK   60  A    between atoms: _129  and  _130
REMARK   61  A    between atoms: _129  and  _132
REMARK   62  A    between atoms: _132  and  _133
REMARK   63  A    between atoms: _143  and  _145
REMARK   64  A    between atoms: _145  and  _146
REMARK   65  A    between atoms: _145  and  _148
REMARK   66  A    between atoms: _148  and  _149
REMARK   67  A    between atoms: _154  and  _156
REMARK   68  A    between atoms: _156  and  _157
REMARK   69  A    between atoms: _159  and  _161
REMARK   70  A    between atoms: _161  and  _162
REMARK   71  A    between atoms: _161  and  _164
REMARK   72  A    between atoms: _164  and  _165
REMARK   73  A    between atoms: _165  and  _166
REMARK   74  A    between atoms: _168  and  _170
REMARK   75  A    between atoms: _170  and  _171
REMARK   76  A    between atoms: _170  and  _173
REMARK   77  A    between atoms: _173  and  _174
REMARK   78  A    between atoms: _177  and  _179
REMARK   79  A    between atoms: _179  and  _180
REMARK   80  A    between atoms: _183  and  _185
REMARK   81  A    between atoms: _185  and  _186
REMARK   82  A    between atoms: _185  and  _188
REMARK   83  A    between atoms: _188  and  _189
REMARK   84  A    between atoms: _192  and  _194
REMARK   85  A    between atoms: _194  and  _195
REMARK   86  A    between atoms: _194  and  _197
REMARK   87  A    between atoms: _197  and  _198
REMARK   88  A    between atoms: _200  and  _202
REMARK   89  A    between atoms: _202  and  _203
REMARK   90  A    between atoms: _202  and  _205
REMARK   91  A    between atoms: _205  and  _206
REMARK   92  A    between atoms: _209  and  _211
REMARK   93  A    between atoms: _211  and  _212
REMARK   94  A    between atoms: _215  and  _217
REMARK   95  A    between atoms: _217  and  _218
REMARK   96  A    between atoms: _217  and  _220
REMARK   97  A    between atoms: _220  and  _221
REMARK   98  A    between atoms: _221  and  _222
REMARK   99  A    between atoms: _226  and  _227
REMARK  100  A    between atoms: _232  and  _234
REMARK  101  A    between atoms: _234  and  _235
REMARK  102  A    between atoms: _234  and  _237
REMARK  103  A    between atoms: _237  and  _238
REMARK  104  A    between atoms: _241  and  _243
REMARK  105  A    between atoms: _243  and  _244
REMARK  106  A    between atoms: _243  and  _246
REMARK  107  A    between atoms: _246  and  _247
REMARK  108  A    between atoms: _250  and  _252
REMARK  109  A    between atoms: _252  and  _253
REMARK  110  A    between atoms: _252  and  _255
REMARK  111  A    between atoms: _255  and  _256
REMARK  112  A    between atoms: _258  and  _260
REMARK  113  A    between atoms: _260  and  _261
REMARK  114  A    between atoms: _260  and  _263
REMARK  115  A    between atoms: _263  and  _264
REMARK  116  A    between atoms: _266  and  _268
REMARK  117  A    between atoms: _268  and  _269
REMARK  118  A    between atoms: _271  and  _273
REMARK  119  A    between atoms: _273  and  _274
REMARK  120  A    between atoms: _276  and  _278
REMARK  121  A    between atoms: _278  and  _279
REMARK  122  A    between atoms: _278  and  _281
REMARK  123  A    between atoms: _281  and  _282
REMARK  124  A    between atoms: _285  and  _287
REMARK  125  A    between atoms: _287  and  _288
REMARK  126  A    between atoms: _287  and  _290
REMARK  127  A    between atoms: _290  and  _291
REMARK  128  A    between atoms: _291  and  _292
REMARK  129  A    between atoms: _295  and  _297
REMARK  130  A    between atoms: _297  and  _298
REMARK  131  A    between atoms: _301  and  _303
REMARK  132  A    between atoms: _303  and  _304
REMARK  133  A    between atoms: _303  and  _306
REMARK  134  A    between atoms: _306  and  _307
REMARK  135  A    between atoms: _307  and  _308
REMARK  136  A    between atoms: _313  and  _315
REMARK  137  A    between atoms: _315  and  _316
REMARK  138  A    between atoms: _315  and  _318
REMARK  139  A    between atoms: _318  and  _319
REMARK  140  A    between atoms: _322  and  _324
REMARK  141  A    between atoms: _324  and  _325
REMARK  142  A    between atoms: _327  and  _329
REMARK  143  A    between atoms: _329  and  _330
REMARK  144  A    between atoms: _329  and  _332
REMARK  145  A    between atoms: _332  and  _333
REMARK  146  A    between atoms: _336  and  _338
REMARK  147  A    between atoms: _338  and  _339
REMARK  148  A    between atoms: _338  and  _341
REMARK  149  A    between atoms: _341  and  _342
REMARK  150  A    between atoms: _345  and  _347
REMARK  151  A    between atoms: _347  and  _348
REMARK  152  A    between atoms: _347  and  _350
REMARK  153  A    between atoms: _350  and  _351
REMARK  154  A    between atoms: _353  and  _355
REMARK  155  A    between atoms: _355  and  _356
REMARK  156  A    between atoms: _355  and  _358
REMARK  157  A    between atoms: _358  and  _359
REMARK  158  A    between atoms: _359  and  _360
REMARK  159  A    between atoms: _360  and  _361
REMARK  160  A    between atoms: _361  and  _362
REMARK  161  A    between atoms: _367  and  _368
REMARK  162  A    between atoms: _373  and  _375
REMARK  163  A    between atoms: _375  and  _376
REMARK  164  A    between atoms: _375  and  _378
REMARK  165  A    between atoms: _378  and  _379
REMARK  166  A    between atoms: _382  and  _384
REMARK  167  A    between atoms: _384  and  _385
REMARK  168  A    between atoms: _388  and  _390
REMARK  169  A    between atoms: _390  and  _391
REMARK  170  A    between atoms: _390  and  _393
REMARK  171  A    between atoms: _393  and  _394
REMARK  172  A    between atoms: _399  and  _401
REMARK  173  A    between atoms: _401  and  _402
REMARK  174  A    between atoms: _401  and  _404
REMARK  175  A    between atoms: _407  and  _409
REMARK  176  A    between atoms: _409  and  _410
REMARK  177  A    between atoms: _409  and  _412
REMARK  178  A    between atoms: _412  and  _413
REMARK  179  A    between atoms: _413  and  _414
REMARK  180  A    between atoms: _414  and  _415
REMARK  181  A    between atoms: _424  and  _426
REMARK  182  A    between atoms: _426  and  _427
REMARK  183  A    between atoms: _426  and  _429
REMARK  184  A    between atoms: _429  and  _430
REMARK  185  A    between atoms: _435  and  _437
REMARK  186  A    between atoms: _437  and  _438
REMARK  187  A    between atoms: _437  and  _440
REMARK  188  A    between atoms: _440  and  _441
REMARK  189  A    between atoms: _447  and  _449
REMARK  190  A    between atoms: _449  and  _450
REMARK  191  A    between atoms: _449  and  _452
REMARK  192  A    between atoms: _452  and  _453
REMARK  193  A    between atoms: _455  and  _457
REMARK  194  A    between atoms: _457  and  _458
REMARK  195  A    between atoms: _457  and  _460
REMARK  196  A    between atoms: _460  and  _461
REMARK  197  A    between atoms: _461  and  _462
REMARK  198  A    between atoms: _465  and  _467
REMARK  199  A    between atoms: _467  and  _468
REMARK  200  A    between atoms: _467  and  _470
REMARK  201  A    between atoms: _470  and  _471
REMARK  202  A    between atoms: _473  and  _475
REMARK  203  A    between atoms: _475  and  _476
REMARK  204  A    between atoms: _475  and  _478
REMARK  205  A    between atoms: _478  and  _479
REMARK  206  A    between atoms: _479  and  _480
REMARK  207  A    between atoms: _483  and  _485
REMARK  208  A    between atoms: _485  and  _486
REMARK  209  A    between atoms: _485  and  _488
REMARK  210  A    between atoms: _488  and  _489
REMARK  211  A    between atoms: _492  and  _494
REMARK  212  A    between atoms: _494  and  _495
REMARK  213  A    between atoms: _494  and  _497
REMARK  214  A    between atoms: _497  and  _498
REMARK  215  A    between atoms: _504  and  _506
REMARK  216  A    between atoms: _506  and  _507
REMARK  217  A    between atoms: _506  and  _509
REMARK  218  A    between atoms: _509  and  _510
REMARK  219  A    between atoms: _515  and  _516
REMARK  220  A    between atoms: _518  and  _520
REMARK  221  A    between atoms: _520  and  _521
REMARK  222  A    between atoms: _520  and  _523
REMARK  223  A    between atoms: _523  and  _524
REMARK  224  A    between atoms: _527  and  _529
REMARK  225  A    between atoms: _529  and  _530
REMARK  226  A    between atoms: _529  and  _532
REMARK  227  A    between atoms: _532  and  _533
REMARK  228  A    between atoms: _536  and  _538
REMARK  229  A    between atoms: _538  and  _539
REMARK  230  A    between atoms: _538  and  _541
REMARK  231  A    between atoms: _541  and  _542
REMARK  232  A    between atoms: _547  and  _549
REMARK  233  A    between atoms: _549  and  _550
REMARK  234  A    between atoms: _549  and  _552
REMARK                            x       y       z     vdW  Elec       q    Type
REMARK                         _______ _______ _______ _____ _____    ______ ____
ROOT
ATOM      1  CA  ALA A   1      24.959  55.654  13.462  0.00  0.00    +0.133 C 
ATOM      2  CB  ALA A   1      24.415  54.353  13.649  0.00  0.00    +0.027 C 
ENDROOT
BRANCH   1   3
ATOM      3  N   ALA A   1      26.372  55.556  13.143  0.00  0.00    -0.239 NA
ATOM      4  H   ALA A   1      26.874  54.645  13.142  0.00  0.00    +0.142 HD
ENDBRANCH   1   3
BRANCH   1   5
ATOM      5  C   ALA A   1      24.847  56.442  14.743  0.00  0.00    +0.224 C 
ATOM      6  O   ALA A   1      23.979  57.272  14.914  0.00  0.00    -0.287 OA
ENDBRANCH   1   5
TORSDOF 2
REMARK  Name = ../refined-set-2016/1m0n/1m0n_pocket.pdb
REMARK  234 active torsions:
REMARK  status: ('A' for Active; 'I' for Inactive)
REMARK    1  A    between atoms: _1  and  _3
REMARK    2  A    between atoms: _3  and  _4
REMARK    3  A    between atoms: _3  and  _6
REMARK    4  A    between atoms: _6  and  _7
REMARK    5  A    between atoms: _10  and  _12
REMARK    6  A    between atoms: _12  and  _13
REMARK    7  A    between atoms: _12  and  _15
REMARK    8  A    between atoms: _15  and  _16
REMARK    9  A    between atoms: _18  and  _20
REMARK   10  A    between atoms: _20  and  _21
REMARK   11  A    between atoms: _23  and  _25
REMARK   12  A    between atoms: _25  and  _26
REMARK   13  A    between atoms: _25  and  _28
REMARK   14  A    between atoms: _28  and  _29
REMARK   15  A    between atoms: _29  and  _30
REMARK   16  A    between atoms: _35  and  _37
REMARK   17  A    between atoms: _37  and  _38
REMARK   18  A    between atoms: _37  and  _40
REMARK   19  A    between atoms: _40  and  _41
REMARK   20  A    between atoms: _41  and  _42
REMARK   21  A    between atoms: _44  and  _46
REMARK   22  A    between atoms: _46  and  _47
REMARK   23  A    between atoms: _46  and  _49
REMARK   24  A    between atoms: _49  and  _50
REMARK   25  A    between atoms: _52  and  _54
REMARK   26  A    between atoms: _54  and  _55
REMARK   27  A    between atoms: _54  and  _57
REMARK   28  A    between atoms: _57  and  _58
REMARK   29  A    between atoms: _60  and  _62
REMARK   30  A    between atoms: _62  and  _63
REMARK   31  A    between atoms: _62  and  _65
REMARK   32  A    between atoms: _65  and  _66
REMARK   33  A    between atoms: _69  and  _71
REMARK   34  A    between atoms: _71  and  _72
REMARK   35  A    between atoms: _74  and  _76
REMARK   36  A    between atoms: _76  and  _77
REMARK   37  A    between atoms: _80  and  _82
REMARK   38  A    between atoms: _82  and  _83
REMARK   39  A    between atoms: _82  and  _85
REMARK   40  A    between atoms: _85  and  _86
REMARK   41  A    between atoms: _86  and  _87
REMARK   42  A    between atoms: _90  and  _92
REMARK   43  A    between atoms: _92  and  _93
REMARK   44  A    between atoms: _92  and  _95
REMARK   45  A    between atoms: _95  and  _96
REMARK   46  A    between atoms: _98  and  _100
REMARK   47  A    between atoms: _100  and  _101
REMARK   48  A    between atoms: _100  and  _103
REMARK   49  A    between atoms: _103  and  _104
REMARK   50  A    between atoms: _109  and  _111
REMARK   51  A    between atoms: _111  and  _112
REMARK   52  A    between atoms: _111  and  _114
REMARK   53  A    between atoms: _114  and  _115
REMARK   54  A    between atoms: _115  and  _116
REMARK   55  A    between atoms: _119  and  _121
REMARK   56  A    between atoms: _121  and  _122
REMARK   57  A    between atoms: _121  and  _124
REMARK   58  A    between atoms: _124  and  _125
REMARK   59  A    between atoms: _127  and  _129
REMARK   60  A    between atoms: _129  and  _130
REMARK   61  A    between atoms: _129  and  _132
REMARK   62  A    between atoms: _132  and  _133
REMARK   63  A    between atoms: _143  and  _145
REMARK   64  A    between atoms: _145  and  _146
REMARK   65  A    between atoms: _145  and  _148
REMARK   66  A    between atoms: _148  and  _149
REMARK   67  A    between atoms: _154  and  _156
REMARK   68  A    between atoms: _156  and  _157
REMARK   69  A    between atoms: _159  and  _161
REMARK   70  A    between atoms: _161  and  _162
REMARK   71  A    between atoms: _161  and  _164
REMARK   72  A    between atoms: _164  and  _165
REMARK   73  A    between atoms: _165  and  _166
REMARK   74  A    between atoms: _168  and  _170
REMARK   75  A    between atoms: _170  and  _171
REMARK   76  A    between atoms: _170  and  _173
REMARK   77  A    between atoms: _173  and  _174
REMARK   78  A    between atoms: _177  and  _179
REMARK   79  A    between atoms: _179  and  _180
REMARK   80  A    between atoms: _183  and  _185
REMARK   81  A    between atoms: _185  and  _186
REMARK   82  A    between atoms: _185  and  _188
REMARK   83  A    between atoms: _188  and  _189
REMARK   84  A    between atoms: _192  and  _194
REMARK   85  A    between atoms: _194  and  _195
REMARK   86  A    between atoms: _194  and  _197
REMARK   87  A    between atoms: _197  and  _198
REMARK   88  A    between atoms: _200  and  _202
REMARK   89  A    between atoms: _202  and  _203
REMARK   90  A    between atoms: _202  and  _205
REMARK   91  A    between atoms: _205  and  _206
REMARK   92  A    between atoms: _209  and  _211
REMARK   93  A    between atoms: _211  and  _212
REMARK   94  A    between atoms: _215  and  _217
REMARK   95  A    between atoms: _217  and  _218
REMARK   96  A    between atoms: _217  and  _220
REMARK   97  A    between atoms: _220  and  _221
REMARK   98  A    between atoms: _221  and  _222
REMARK   99  A    between atoms: _226  and  _227
REMARK  100  A    between atoms: _232  and  _234
REMARK  101  A    between atoms: _234  and  _235
REMARK  102  A    between atoms: _234  and  _237
REMARK  103  A    between atoms: _237  and  _238
REMARK  104  A    between atoms: _241  and  _243
REMARK  105  A    between atoms: _243  and  _244
REMARK  106  A    between atoms: _243  and  _246
REMARK  107  A    between atoms: _246  and  _247
REMARK  108  A    between atoms: _250  and  _252
REMARK  109  A    between atoms: _252  and  _253
REMARK  110  A    between atoms: _252  and  _255
REMARK  111  A    between atoms: _255  and  _256
REMARK  112  A    between atoms: _258  and  _260
REMARK  113  A    between atoms: _260  and  _261
REMARK  114  A    between atoms: _260  and  _263
REMARK  115  A    between atoms: _263  and  _264
REMARK  116  A    between atoms: _266  and  _268
REMARK  117  A    between atoms: _268  and  _269
REMARK  118  A    between atoms: _271  and  _273
REMARK  119  A    between atoms: _273  and  _274
REMARK  120  A    between atoms: _276  and  _278
REMARK  121  A    between atoms: _278  and  _279
REMARK  122  A    between atoms: _278  and  _281
REMARK  123  A    between atoms: _281  and  _282
REMARK  124  A    between atoms: _285  and  _287
REMARK  125  A    between atoms: _287  and  _288
REMARK  126  A    between atoms: _287  and  _290
REMARK  127  A    between atoms: _290  and  _291
REMARK  128  A    between atoms: _291  and  _292
REMARK  129  A    between atoms: _295  and  _297
REMARK  130  A    between atoms: _297  and  _298
REMARK  131  A    between atoms: _301  and  _303
REMARK  132  A    between atoms: _303  and  _304
REMARK  133  A    between atoms: _303  and  _306
REMARK  134  A    between atoms: _306  and  _307
REMARK  135  A    between atoms: _307  and  _308
REMARK  136  A    between atoms: _313  and  _315
REMARK  137  A    between atoms: _315  and  _316
REMARK  138  A    between atoms: _315  and  _318
REMARK  139  A    between atoms: _318  and  _319
REMARK  140  A    between atoms: _322  and  _324
REMARK  141  A    between atoms: _324  and  _325
REMARK  142  A    between atoms: _327  and  _329
REMARK  143  A    between atoms: _329  and  _330
REMARK  144  A    between atoms: _329  and  _332
REMARK  145  A    between atoms: _332  and  _333
REMARK  146  A    between atoms: _336  and  _338
REMARK  147  A    between atoms: _338  and  _339
REMARK  148  A    between atoms: _338  and  _341
REMARK  149  A    between atoms: _341  and  _342
REMARK  150  A    between atoms: _345  and  _347
REMARK  151  A    between atoms: _347  and  _348
REMARK  152  A    between atoms: _347  and  _350
REMARK  153  A    between atoms: _350  and  _351
REMARK  154  A    between atoms: _353  and  _355
REMARK  155  A    between atoms: _355  and  _356
REMARK  156  A    between atoms: _355  and  _358
REMARK  157  A    between atoms: _358  and  _359
REMARK  158  A    between atoms: _359  and  _360
REMARK  159  A    between atoms: _360  and  _361
REMARK  160  A    between atoms: _361  and  _362
REMARK  161  A    between atoms: _367  and  _368
REMARK  162  A    between atoms: _373  and  _375
REMARK  163  A    between atoms: _375  and  _376
REMARK  164  A    between atoms: _375  and  _378
REMARK  165  A    between atoms: _378  and  _379
REMARK  166  A    between atoms: _382  and  _384
REMARK  167  A    between atoms: _384  and  _385
REMARK  168  A    between atoms: _388  and  _390
REMARK  169  A    between atoms: _390  and  _391
REMARK  170  A    between atoms: _390  and  _393
REMARK  171  A    between atoms: _393  and  _394
REMARK  172  A    between atoms: _399  and  _401
REMARK  173  A    between atoms: _401  and  _402
REMARK  174  A    between atoms: _401  and  _404
REMARK  175  A    between atoms: _407  and  _409
REMARK  176  A    between atoms: _409  and  _410
REMARK  177  A    between atoms: _409  and  _412
REMARK  178  A    between atoms: _412  and  _413
REMARK  179  A    between atoms: _413  and  _414
REMARK  180  A    between atoms: _414  and  _415
REMARK  181  A    between atoms: _424  and  _426
REMARK  182  A    between atoms: _426  and  _427
REMARK  183  A    between atoms: _426  and  _429
REMARK  184  A    between atoms: _429  and  _430
REMARK  185  A    between atoms: _435  and  _437
REMARK  186  A    between atoms: _437  and  _438
REMARK  187  A    between atoms: _437  and  _440
REMARK  188  A    between atoms: _440  and  _441
REMARK  189  A    between atoms: _447  and  _449
REMARK  190  A    between atoms: _449  and  _450
REMARK  191  A    between atoms: _449  and  _452
REMARK  192  A    between atoms: _452  and  _453
REMARK  193  A    between atoms: _455  and  _457
REMARK  194  A    between atoms: _457  and  _458
REMARK  195  A    between atoms: _457  and  _460
REMARK  196  A    between atoms: _460  and  _461
REMARK  197  A    between atoms: _461  and  _462
REMARK  198  A    between atoms: _465  and  _467
REMARK  199  A    between atoms: _467  and  _468
REMARK  200  A    between atoms: _467  and  _470
REMARK  201  A    between atoms: _470  and  _471
REMARK  202  A    between atoms: _473  and  _475
REMARK  203  A    between atoms: _475  and  _476
REMARK  204  A    between atoms: _475  and  _478
REMARK  205  A    between atoms: _478  and  _479
REMARK  206  A    between atoms: _479  and  _480
REMARK  207  A    between atoms: _483  and  _485
REMARK  208  A    between atoms: _485  and  _486
REMARK  209  A    between atoms: _485  and  _488
REMARK  210  A    between atoms: _488  and  _489
REMARK  211  A    between atoms: _492  and  _494
REMARK  212  A    between atoms: _494  and  _495
REMARK  213  A    between atoms: _494  and  _497
REMARK  214  A    between atoms: _497  and  _498
REMARK  215  A    between atoms: _504  and  _506
REMARK  216  A    between atoms: _506  and  _507
REMARK  217  A    between atoms: _506  and  _509
REMARK  218  A    between atoms: _509  and  _510
REMARK  219  A    between atoms: _515  and  _516
REMARK  220  A    between atoms: _518  and  _520
REMARK  221  A    between atoms: _520  and  _521
REMARK  222  A    between atoms: _520  and  _523
REMARK  223  A    between atoms: _523  and  _524
REMARK  224  A    between atoms: _527  and  _529
REMARK  225  A    between atoms: _529  and  _530
REMARK  226  A    between atoms: _529  and  _532
REMARK  227  A    between atoms: _532  and  _533
REMARK  228  A    between atoms: _536  and  _538
REMARK  229  A    between atoms: _538  and  _539
REMARK  230  A    between atoms: _538  and  _541
REMARK  231  A    between atoms: _541  and  _542
REMARK  232  A    between atoms: _547  and  _549
REMARK  233  A    between atoms: _549  and  _550
REMARK  234  A    between atoms: _549  and  _552
REMARK                            x       y       z     vdW  Elec       q    Type
REMARK                         _______ _______ _______ _____ _____    ______ ____
ROOT
ATOM      1  CA  THR A   1      21.657  59.976  16.874  0.00  0.00    +0.160 C 
ENDROOT
BRANCH   1   2
ATOM      2  N   THR A   1      22.764  60.214  15.957  0.00  0.00    -0.237 NA
ATOM      3  H   THR A   1      23.723  59.931  16.241  0.00  0.00    +0.142 HD
ENDBRANCH   1   2
BRANCH   1   4
ATOM      4  C   THR A   1      21.636  61.067  17.879  0.00  0.00    +0.227 C 
ATOM      5  O   THR A   1      22.568  61.248  18.623  0.00  0.00    -0.287 OA
ENDBRANCH   1   4
BRANCH   1   6
ATOM      6  CB  THR A   1      21.899  58.773  17.592  0.00  0.00    +0.134 C 
ATOM      7  CG2 THR A   1      20.850  58.546  18.652  0.00  0.00    +0.034 C 
BRANCH   6   8
ATOM      8  OG1 THR A   1      21.892  57.705  16.679  0.00  0.00    -0.383 OA
ATOM      9  HG1 THR A   1      22.601  57.846  16.003  0.00  0.00    +0.210 HD
ENDBRANCH   6   8
ENDBRANCH   1   6
TORSDOF 4
REMARK  Name = ../refined-set-2016/1m0n/1m0n_pocket.pdb
REMARK  234 active torsions:
REMARK  status: ('A' for Active; 'I' for Inactive)
REMARK    1  A    between atoms: _1  and  _3
REMARK    2  A    between atoms: _3  and  _4
REMARK    3  A    between atoms: _3  and  _6
REMARK    4  A    between atoms: _6  and  _7
REMARK    5  A    between atoms: _10  and  _12
REMARK    6  A    between atoms: _12  and  _13
REMARK    7  A    between atoms: _12  and  _15
REMARK    8  A    between atoms: _15  and  _16
REMARK    9  A    between atoms: _18  and  _20
REMARK   10  A    between atoms: _20  and  _21
REMARK   11  A    between atoms: _23  and  _25
REMARK   12  A    between atoms: _25  and  _26
REMARK   13  A    between atoms: _25  and  _28
REMARK   14  A    between atoms: _28  and  _29
REMARK   15  A    between atoms: _29  and  _30
REMARK   16  A    between atoms: _35  and  _37
REMARK   17  A    between atoms: _37  and  _38
REMARK   18  A    between atoms: _37  and  _40
REMARK   19  A    between atoms: _40  and  _41
REMARK   20  A    between atoms: _41  and  _42
REMARK   21  A    between atoms: _44  and  _46
REMARK   22  A    between atoms: _46  and  _47
REMARK   23  A    between atoms: _46  and  _49
REMARK   24  A    between atoms: _49  and  _50
REMARK   25  A    between atoms: _52  and  _54
REMARK   26  A    between atoms: _54  and  _55
REMARK   27  A    between atoms: _54  and  _57
REMARK   28  A    between atoms: _57  and  _58
REMARK   29  A    between atoms: _60  and  _62
REMARK   30  A    between atoms: _62  and  _63
REMARK   31  A    between atoms: _62  and  _65
REMARK   32  A    between atoms: _65  and  _66
REMARK   33  A    between atoms: _69  and  _71
REMARK   34  A    between atoms: _71  and  _72
REMARK   35  A    between atoms: _74  and  _76
REMARK   36  A    between atoms: _76  and  _77
REMARK   37  A    between atoms: _80  and  _82
REMARK   38  A    between atoms: _82  and  _83
REMARK   39  A    between atoms: _82  and  _85
REMARK   40  A    between atoms: _85  and  _86
REMARK   41  A    between atoms: _86  and  _87
REMARK   42  A    between atoms: _90  and  _92
REMARK   43  A    between atoms: _92  and  _93
REMARK   44  A    between atoms: _92  and  _95
REMARK   45  A    between atoms: _95  and  _96
REMARK   46  A    between atoms: _98  and  _100
REMARK   47  A    between atoms: _100  and  _101
REMARK   48  A    between atoms: _100  and  _103
REMARK   49  A    between atoms: _103  and  _104
REMARK   50  A    between atoms: _109  and  _111
REMARK   51  A    between atoms: _111  and  _112
REMARK   52  A    between atoms: _111  and  _114
REMARK   53  A    between atoms: _114  and  _115
REMARK   54  A    between atoms: _115  and  _116
REMARK   55  A    between atoms: _119  and  _121
REMARK   56  A    between atoms: _121  and  _122
REMARK   57  A    between atoms: _121  and  _124
REMARK   58  A    between atoms: _124  and  _125
REMARK   59  A    between atoms: _127  and  _129
REMARK   60  A    between atoms: _129  and  _130
REMARK   61  A    between atoms: _129  and  _132
REMARK   62  A    between atoms: _132  and  _133
REMARK   63  A    between atoms: _143  and  _145
REMARK   64  A    between atoms: _145  and  _146
REMARK   65  A    between atoms: _145  and  _148
REMARK   66  A    between atoms: _148  and  _149
REMARK   67  A    between atoms: _154  and  _156
REMARK   68  A    between atoms: _156  and  _157
REMARK   69  A    between atoms: _159  and  _161
REMARK   70  A    between atoms: _161  and  _162
REMARK   71  A    between atoms: _161  and  _164
REMARK   72  A    between atoms: _164  and  _165
REMARK   73  A    between atoms: _165  and  _166
REMARK   74  A    between atoms: _168  and  _170
REMARK   75  A    between atoms: _170  and  _171
REMARK   76  A    between atoms: _170  and  _173
REMARK   77  A    between atoms: _173  and  _174
REMARK   78  A    between atoms: _177  and  _179
REMARK   79  A    between atoms: _179  and  _180
REMARK   80  A    between atoms: _183  and  _185
REMARK   81  A    between atoms: _185  and  _186
REMARK   82  A    between atoms: _185  and  _188
REMARK   83  A    between atoms: _188  and  _189
REMARK   84  A    between atoms: _192  and  _194
REMARK   85  A    between atoms: _194  and  _195
REMARK   86  A    between atoms: _194  and  _197
REMARK   87  A    between atoms: _197  and  _198
REMARK   88  A    between atoms: _200  and  _202
REMARK   89  A    between atoms: _202  and  _203
REMARK   90  A    between atoms: _202  and  _205
REMARK   91  A    between atoms: _205  and  _206
REMARK   92  A    between atoms: _209  and  _211
REMARK   93  A    between atoms: _211  and  _212
REMARK   94  A    between atoms: _215  and  _217
REMARK   95  A    between atoms: _217  and  _218
REMARK   96  A    between atoms: _217  and  _220
REMARK   97  A    between atoms: _220  and  _221
REMARK   98  A    between atoms: _221  and  _222
REMARK   99  A    between atoms: _226  and  _227
REMARK  100  A    between atoms: _232  and  _234
REMARK  101  A    between atoms: _234  and  _235
REMARK  102  A    between atoms: _234  and  _237
REMARK  103  A    between atoms: _237  and  _238
REMARK  104  A    between atoms: _241  and  _243
REMARK  105  A    between atoms: _243  and  _244
REMARK  106  A    between atoms: _243  and  _246
REMARK  107  A    between atoms: _246  and  _247
REMARK  108  A    between atoms: _250  and  _252
REMARK  109  A    between atoms: _252  and  _253
REMARK  110  A    between atoms: _252  and  _255
REMARK  111  A    between atoms: _255  and  _256
REMARK  112  A    between atoms: _258  and  _260
REMARK  113  A    between atoms: _260  and  _261
REMARK  114  A    between atoms: _260  and  _263
REMARK  115  A    between atoms: _263  and  _264
REMARK  116  A    between atoms: _266  and  _268
REMARK  117  A    between atoms: _268  and  _269
REMARK  118  A    between atoms: _271  and  _273
REMARK  119  A    between atoms: _273  and  _274
REMARK  120  A    between atoms: _276  and  _278
REMARK  121  A    between atoms: _278  and  _279
REMARK  122  A    between atoms: _278  and  _281
REMARK  123  A    between atoms: _281  and  _282
REMARK  124  A    between atoms: _285  and  _287
REMARK  125  A    between atoms: _287  and  _288
REMARK  126  A    between atoms: _287  and  _290
REMARK  127  A    between atoms: _290  and  _291
REMARK  128  A    between atoms: _291  and  _292
REMARK  129  A    between atoms: _295  and  _297
REMARK  130  A    between atoms: _297  and  _298
REMARK  131  A    between atoms: _301  and  _303
REMARK  132  A    between atoms: _303  and  _304
REMARK  133  A    between atoms: _303  and  _306
REMARK  134  A    between atoms: _306  and  _307
REMARK  135  A    between atoms: _307  and  _308
REMARK  136  A    between atoms: _313  and  _315
REMARK  137  A    between atoms: _315  and  _316
REMARK  138  A    between atoms: _315  and  _318
REMARK  139  A    between atoms: _318  and  _319
REMARK  140  A    between atoms: _322  and  _324
REMARK  141  A    between atoms: _324  and  _325
REMARK  142  A    between atoms: _327  and  _329
REMARK  143  A    between atoms: _329  and  _330
REMARK  144  A    between atoms: _329  and  _332
REMARK  145  A    between atoms: _332  and  _333
REMARK  146  A    between atoms: _336  and  _338
REMARK  147  A    between atoms: _338  and  _339
REMARK  148  A    between atoms: _338  and  _341
REMARK  149  A    between atoms: _341  and  _342
REMARK  150  A    between atoms: _345  and  _347
REMARK  151  A    between atoms: _347  and  _348
REMARK  152  A    between atoms: _347  and  _350
REMARK  153  A    between atoms: _350  and  _351
REMARK  154  A    between atoms: _353  and  _355
REMARK  155  A    between atoms: _355  and  _356
REMARK  156  A    between atoms: _355  and  _358
REMARK  157  A    between atoms: _358  and  _359
REMARK  158  A    between atoms: _359  and  _360
REMARK  159  A    between atoms: _360  and  _361
REMARK  160  A    between atoms: _361  and  _362
REMARK  161  A    between atoms: _367  and  _368
REMARK  162  A    between atoms: _373  and  _375
REMARK  163  A    between atoms: _375  and  _376
REMARK  164  A    between atoms: _375  and  _378
REMARK  165  A    between atoms: _378  and  _379
REMARK  166  A    between atoms: _382  and  _384
REMARK  167  A    between atoms: _384  and  _385
REMARK  168  A    between atoms: _388  and  _390
REMARK  169  A    between atoms: _390  and  _391
REMARK  170  A    between atoms: _390  and  _393
REMARK  171  A    between atoms: _393  and  _394
REMARK  172  A    between atoms: _399  and  _401
REMARK  173  A    between atoms: _401  and  _402
REMARK  174  A    between atoms: _401  and  _404
REMARK  175  A    between atoms: _407  and  _409
REMARK  176  A    between atoms: _409  and  _410
REMARK  177  A    between atoms: _409  and  _412
REMARK  178  A    between atoms: _412  and  _413
REMARK  179  A    between atoms: _413  and  _414
REMARK  180  A    between atoms: _414  and  _415
REMARK  181  A    between atoms: _424  and  _426
REMARK  182  A    between atoms: _426  and  _427
REMARK  183  A    between atoms: _426  and  _429
REMARK  184  A    between atoms: _429  and  _430
REMARK  185  A    between atoms: _435  and  _437
REMARK  186  A    between atoms: _437  and  _438
REMARK  187  A    between atoms: _437  and  _440
REMARK  188  A    between atoms: _440  and  _441
REMARK  189  A    between atoms: _447  and  _449
REMARK  190  A    between atoms: _449  and  _450
REMARK  191  A    between atoms: _449  and  _452
REMARK  192  A    between atoms: _452  and  _453
REMARK  193  A    between atoms: _455  and  _457
REMARK  194  A    between atoms: _457  and  _458
REMARK  195  A    between atoms: _457  and  _460
REMARK  196  A    between atoms: _460  and  _461
REMARK  197  A    between atoms: _461  and  _462
REMARK  198  A    between atoms: _465  and  _467
REMARK  199  A    between atoms: _467  and  _468
REMARK  200  A    between atoms: _467  and  _470
REMARK  201  A    between atoms: _470  and  _471
REMARK  202  A    between atoms: _473  and  _475
REMARK  203  A    between atoms: _475  and  _476
REMARK  204  A    between atoms: _475  and  _478
REMARK  205  A    between atoms: _478  and  _479
REMARK  206  A    between atoms: _479  and  _480
REMARK  207  A    between atoms: _483  and  _485
REMARK  208  A    between atoms: _485  and  _486
REMARK  209  A    between atoms: _485  and  _488
REMARK  210  A    between atoms: _488  and  _489
REMARK  211  A    between atoms: _492  and  _494
REMARK  212  A    between atoms: _494  and  _495
REMARK  213  A    between atoms: _494  and  _497
REMARK  214  A    between atoms: _497  and  _498
REMARK  215  A    between atoms: _504  and  _506
REMARK  216  A    between atoms: _506  and  _507
REMARK  217  A    between atoms: _506  and  _509
REMARK  218  A    between atoms: _509  and  _510
REMARK  219  A    between atoms: _515  and  _516
REMARK  220  A    between atoms: _518  and  _520
REMARK  221  A    between atoms: _520  and  _521
REMARK  222  A    between atoms: _520  and  _523
REMARK  223  A    between atoms: _523  and  _524
REMARK  224  A    between atoms: _527  and  _529
REMARK  225  A    between atoms: _529  and  _530
REMARK  226  A    between atoms: _529  and  _532
REMARK  227  A    between atoms: _532  and  _533
REMARK  228  A    between atoms: _536  and  _538
REMARK  229  A    between atoms: _538  and  _539
REMARK  230  A    between atoms: _538  and  _541
REMARK  231  A    between atoms: _541  and  _542
REMARK  232  A    between atoms: _547  and  _549
REMARK  233  A    between atoms: _549  and  _550
REMARK  234  A    between atoms: _549  and  _552
REMARK                            x       y       z     vdW  Elec       q    Type
REMARK                         _______ _______ _______ _____ _____    ______ ____
ROOT
ATOM      1  CA  SER A   1      17.710  61.780  20.993  0.00  0.00    +0.163 C 
ENDROOT
BRANCH   1   2
ATOM      2  N   SER A   1      18.626  61.883  19.924  0.00  0.00    -0.237 NA
ATOM      3  H   SER A   1      18.585  61.230  19.116  0.00  0.00    +0.142 HD
ENDBRANCH   1   2
BRANCH   1   4
ATOM      4  C   SER A   1      18.532  61.432  22.285  0.00  0.00    +0.227 C 
ATOM      5  O   SER A   1      18.123  61.758  23.359  0.00  0.00    -0.287 OA
ENDBRANCH   1   4
BRANCH   1   6
ATOM      6  CB  SER A   1      16.808  60.662  20.732  0.00  0.00    +0.162 C 
BRANCH   6   7
ATOM      7  OG  SER A   1      17.569  59.495  20.723  0.00  0.00    -0.380 OA
ATOM      8  H   SER A   1      18.256  59.556  20.013  0.00  0.00    +0.211 HD
ENDBRANCH   6   7
ENDBRANCH   1   6
TORSDOF 4
REMARK  Name = ../refined-set-2016/1m0n/1m0n_pocket.pdb
REMARK  234 active torsions:
REMARK  status: ('A' for Active; 'I' for Inactive)
REMARK    1  A    between atoms: _1  and  _3
REMARK    2  A    between atoms: _3  and  _4
REMARK    3  A    between atoms: _3  and  _6
REMARK    4  A    between atoms: _6  and  _7
REMARK    5  A    between atoms: _10  and  _12
REMARK    6  A    between atoms: _12  and  _13
REMARK    7  A    between atoms: _12  and  _15
REMARK    8  A    between atoms: _15  and  _16
REMARK    9  A    between atoms: _18  and  _20
REMARK   10  A    between atoms: _20  and  _21
REMARK   11  A    between atoms: _23  and  _25
REMARK   12  A    between atoms: _25  and  _26
REMARK   13  A    between atoms: _25  and  _28
REMARK   14  A    between atoms: _28  and  _29
REMARK   15  A    between atoms: _29  and  _30
REMARK   16  A    between atoms: _35  and  _37
REMARK   17  A    between atoms: _37  and  _38
REMARK   18  A    between atoms: _37  and  _40
REMARK   19  A    between atoms: _40  and  _41
REMARK   20  A    between atoms: _41  and  _42
REMARK   21  A    between atoms: _44  and  _46
REMARK   22  A    between atoms: _46  and  _47
REMARK   23  A    between atoms: _46  and  _49
REMARK   24  A    between atoms: _49  and  _50
REMARK   25  A    between atoms: _52  and  _54
REMARK   26  A    between atoms: _54  and  _55
REMARK   27  A    between atoms: _54  and  _57
REMARK   28  A    between atoms: _57  and  _58
REMARK   29  A    between atoms: _60  and  _62
REMARK   30  A    between atoms: _62  and  _63
REMARK   31  A    between atoms: _62  and  _65
REMARK   32  A    between atoms: _65  and  _66
REMARK   33  A    between atoms: _69  and  _71
REMARK   34  A    between atoms: _71  and  _72
REMARK   35  A    between atoms: _74  and  _76
REMARK   36  A    between atoms: _76  and  _77
REMARK   37  A    between atoms: _80  and  _82
REMARK   38  A    between atoms: _82  and  _83
REMARK   39  A    between atoms: _82  and  _85
REMARK   40  A    between atoms: _85  and  _86
REMARK   41  A    between atoms: _86  and  _87
REMARK   42  A    between atoms: _90  and  _92
REMARK   43  A    between atoms: _92  and  _93
REMARK   44  A    between atoms: _92  and  _95
REMARK   45  A    between atoms: _95  and  _96
REMARK   46  A    between atoms: _98  and  _100
REMARK   47  A    between atoms: _100  and  _101
REMARK   48  A    between atoms: _100  and  _103
REMARK   49  A    between atoms: _103  and  _104
REMARK   50  A    between atoms: _109  and  _111
REMARK   51  A    between atoms: _111  and  _112
REMARK   52  A    between atoms: _111  and  _114
REMARK   53  A    between atoms: _114  and  _115
REMARK   54  A    between atoms: _115  and  _116
REMARK   55  A    between atoms: _119  and  _121
REMARK   56  A    between atoms: _121  and  _122
REMARK   57  A    between atoms: _121  and  _124
REMARK   58  A    between atoms: _124  and  _125
REMARK   59  A    between atoms: _127  and  _129
REMARK   60  A    between atoms: _129  and  _130
REMARK   61  A    between atoms: _129  and  _132
REMARK   62  A    between atoms: _132  and  _133
REMARK   63  A    between atoms: _143  and  _145
REMARK   64  A    between atoms: _145  and  _146
REMARK   65  A    between atoms: _145  and  _148
REMARK   66  A    between atoms: _148  and  _149
REMARK   67  A    between atoms: _154  and  _156
REMARK   68  A    between atoms: _156  and  _157
REMARK   69  A    between atoms: _159  and  _161
REMARK   70  A    between atoms: _161  and  _162
REMARK   71  A    between atoms: _161  and  _164
REMARK   72  A    between atoms: _164  and  _165
REMARK   73  A    between atoms: _165  and  _166
REMARK   74  A    between atoms: _168  and  _170
REMARK   75  A    between atoms: _170  and  _171
REMARK   76  A    between atoms: _170  and  _173
REMARK   77  A    between atoms: _173  and  _174
REMARK   78  A    between atoms: _177  and  _179
REMARK   79  A    between atoms: _179  and  _180
REMARK   80  A    between atoms: _183  and  _185
REMARK   81  A    between atoms: _185  and  _186
REMARK   82  A    between atoms: _185  and  _188
REMARK   83  A    between atoms: _188  and  _189
REMARK   84  A    between atoms: _192  and  _194
REMARK   85  A    between atoms: _194  and  _195
REMARK   86  A    between atoms: _194  and  _197
REMARK   87  A    between atoms: _197  and  _198
REMARK   88  A    between atoms: _200  and  _202
REMARK   89  A    between atoms: _202  and  _203
REMARK   90  A    between atoms: _202  and  _205
REMARK   91  A    between atoms: _205  and  _206
REMARK   92  A    between atoms: _209  and  _211
REMARK   93  A    between atoms: _211  and  _212
REMARK   94  A    between atoms: _215  and  _217
REMARK   95  A    between atoms: _217  and  _218
REMARK   96  A    between atoms: _217  and  _220
REMARK   97  A    between atoms: _220  and  _221
REMARK   98  A    between atoms: _221  and  _222
REMARK   99  A    between atoms: _226  and  _227
REMARK  100  A    between atoms: _232  and  _234
REMARK  101  A    between atoms: _234  and  _235
REMARK  102  A    between atoms: _234  and  _237
REMARK  103  A    between atoms: _237  and  _238
REMARK  104  A    between atoms: _241  and  _243
REMARK  105  A    between atoms: _243  and  _244
REMARK  106  A    between atoms: _243  and  _246
REMARK  107  A    between atoms: _246  and  _247
REMARK  108  A    between atoms: _250  and  _252
REMARK  109  A    between atoms: _252  and  _253
REMARK  110  A    between atoms: _252  and  _255
REMARK  111  A    between atoms: _255  and  _256
REMARK  112  A    between atoms: _258  and  _260
REMARK  113  A    between atoms: _260  and  _261
REMARK  114  A    between atoms: _260  and  _263
REMARK  115  A    between atoms: _263  and  _264
REMARK  116  A    between atoms: _266  and  _268
REMARK  117  A    between atoms: _268  and  _269
REMARK  118  A    between atoms: _271  and  _273
REMARK  119  A    between atoms: _273  and  _274
REMARK  120  A    between atoms: _276  and  _278
REMARK  121  A    between atoms: _278  and  _279
REMARK  122  A    between atoms: _278  and  _281
REMARK  123  A    between atoms: _281  and  _282
REMARK  124  A    between atoms: _285  and  _287
REMARK  125  A    between atoms: _287  and  _288
REMARK  126  A    between atoms: _287  and  _290
REMARK  127  A    between atoms: _290  and  _291
REMARK  128  A    between atoms: _291  and  _292
REMARK  129  A    between atoms: _295  and  _297
REMARK  130  A    between atoms: _297  and  _298
REMARK  131  A    between atoms: _301  and  _303
REMARK  132  A    between atoms: _303  and  _304
REMARK  133  A    between atoms: _303  and  _306
REMARK  134  A    between atoms: _306  and  _307
REMARK  135  A    between atoms: _307  and  _308
REMARK  136  A    between atoms: _313  and  _315
REMARK  137  A    between atoms: _315  and  _316
REMARK  138  A    between atoms: _315  and  _318
REMARK  139  A    between atoms: _318  and  _319
REMARK  140  A    between atoms: _322  and  _324
REMARK  141  A    between atoms: _324  and  _325
REMARK  142  A    between atoms: _327  and  _329
REMARK  143  A    between atoms: _329  and  _330
REMARK  144  A    between atoms: _329  and  _332
REMARK  145  A    between atoms: _332  and  _333
REMARK  146  A    between atoms: _336  and  _338
REMARK  147  A    between atoms: _338  and  _339
REMARK  148  A    between atoms: _338  and  _341
REMARK  149  A    between atoms: _341  and  _342
REMARK  150  A    between atoms: _345  and  _347
REMARK  151  A    between atoms: _347  and  _348
REMARK  152  A    between atoms: _347  and  _350
REMARK  153  A    between atoms: _350  and  _351
REMARK  154  A    between atoms: _353  and  _355
REMARK  155  A    between atoms: _355  and  _356
REMARK  156  A    between atoms: _355  and  _358
REMARK  157  A    between atoms: _358  and  _359
REMARK  158  A    between atoms: _359  and  _360
REMARK  159  A    between atoms: _360  and  _361
REMARK  160  A    between atoms: _361  and  _362
REMARK  161  A    between atoms: _367  and  _368
REMARK  162  A    between atoms: _373  and  _375
REMARK  163  A    between atoms: _375  and  _376
REMARK  164  A    between atoms: _375  and  _378
REMARK  165  A    between atoms: _378  and  _379
REMARK  166  A    between atoms: _382  and  _384
REMARK  167  A    between atoms: _384  and  _385
REMARK  168  A    between atoms: _388  and  _390
REMARK  169  A    between atoms: _390  and  _391
REMARK  170  A    between atoms: _390  and  _393
REMARK  171  A    between atoms: _393  and  _394
REMARK  172  A    between atoms: _399  and  _401
REMARK  173  A    between atoms: _401  and  _402
REMARK  174  A    between atoms: _401  and  _404
REMARK  175  A    between atoms: _407  and  _409
REMARK  176  A    between atoms: _409  and  _410
REMARK  177  A    between atoms: _409  and  _412
REMARK  178  A    between atoms: _412  and  _413
REMARK  179  A    between atoms: _413  and  _414
REMARK  180  A    between atoms: _414  and  _415
REMARK  181  A    between atoms: _424  and  _426
REMARK  182  A    between atoms: _426  and  _427
REMARK  183  A    between atoms: _426  and  _429
REMARK  184  A    between atoms: _429  and  _430
REMARK  185  A    between atoms: _435  and  _437
REMARK  186  A    between atoms: _437  and  _438
REMARK  187  A    between atoms: _437  and  _440
REMARK  188  A    between atoms: _440  and  _441
REMARK  189  A    between atoms: _447  and  _449
REMARK  190  A    between atoms: _449  and  _450
REMARK  191  A    between atoms: _449  and  _452
REMARK  192  A    between atoms: _452  and  _453
REMARK  193  A    between atoms: _455  and  _457
REMARK  194  A    between atoms: _457  and  _458
REMARK  195  A    between atoms: _457  and  _460
REMARK  196  A    between atoms: _460  and  _461
REMARK  197  A    between atoms: _461  and  _462
REMARK  198  A    between atoms: _465  and  _467
REMARK  199  A    between atoms: _467  and  _468
REMARK  200  A    between atoms: _467  and  _470
REMARK  201  A    between atoms: _470  and  _471
REMARK  202  A    between atoms: _473  and  _475
REMARK  203  A    between atoms: _475  and  _476
REMARK  204  A    between atoms: _475  and  _478
REMARK  205  A    between atoms: _478  and  _479
REMARK  206  A    between atoms: _479  and  _480
REMARK  207  A    between atoms: _483  and  _485
REMARK  208  A    between atoms: _485  and  _486
REMARK  209  A    between atoms: _485  and  _488
REMARK  210  A    between atoms: _488  and  _489
REMARK  211  A    between atoms: _492  and  _494
REMARK  212  A    between atoms: _494  and  _495
REMARK  213  A    between atoms: _494  and  _497
REMARK  214  A    between atoms: _497  and  _498
REMARK  215  A    between atoms: _504  and  _506
REMARK  216  A    between atoms: _506  and  _507
REMARK  217  A    between atoms: _506  and  _509
REMARK  218  A    between atoms: _509  and  _510
REMARK  219  A    between atoms: _515  and  _516
REMARK  220  A    between atoms: _518  and  _520
REMARK  221  A    between atoms: _520  and  _521
REMARK  222  A    between atoms: _520  and  _523
REMARK  223  A    between atoms: _523  and  _524
REMARK  224  A    between atoms: _527  and  _529
REMARK  225  A    between atoms: _529  and  _530
REMARK  226  A    between atoms: _529  and  _532
REMARK  227  A    between atoms: _532  and  _533
REMARK  228  A    between atoms: _536  and  _538
REMARK  229  A    between atoms: _538  and  _539
REMARK  230  A    between atoms: _538  and  _541
REMARK  231  A    between atoms: _541  and  _542
REMARK  232  A    between atoms: _547  and  _549
REMARK  233  A    between atoms: _549  and  _550
REMARK  234  A    between atoms: _549  and  _552
REMARK                            x       y       z     vdW  Elec       q    Type
REMARK                         _______ _______ _______ _____ _____    ______ ____
ROOT
ATOM      1  CA  ILE A   5       8.366  58.787  11.977  0.00  0.00    +0.149 C 
ENDROOT
BRANCH   1   2
ATOM      2  C   ILE A   5       9.452  58.594  13.142  0.00  0.00    +0.241 C 
ATOM      3  N   LEU A   6       9.814  59.642  13.861  0.00  0.00    -0.297 N 
ATOM      4  H   LEU A   6       9.391  60.574  13.676  0.00  0.00    +0.150 HD
ATOM      5  O   ILE A   5       9.989  57.508  13.333  0.00  0.00    -0.273 OA
BRANCH   3   6
ATOM      6  CA  LEU A   6      10.830  59.484  14.937  0.00  0.00    +0.149 C 
BRANCH   6   7
ATOM      7  C   LEU A   6      10.270  58.706  16.070  0.00  0.00    +0.241 C 
ATOM      8  O   LEU A   6       9.434  59.192  16.740  0.00  0.00    -0.273 OA
ATOM      9  N   SER A   7      10.724  57.496  16.273  0.00  0.00    -0.295 N 
ATOM     10  H   SER A   7      11.495  57.123  15.683  0.00  0.00    +0.150 HD
BRANCH   9  11
ATOM     11  CA  SER A   7      10.151  56.677  17.321  0.00  0.00    +0.178 C 
BRANCH  11  12
ATOM     12  C   SER A   7      10.762  56.882  18.712  0.00  0.00    +0.243 C 
ATOM     13  O   SER A   7      10.117  57.280  19.646  0.00  0.00    -0.273 OA
ATOM     14  N   SER A   8      12.011  56.562  18.832  0.00  0.00    -0.295 N 
ATOM     15  H   SER A   8      12.523  56.165  18.019  0.00  0.00    +0.150 HD
BRANCH  14  16
ATOM     16  CA  SER A   8      12.670  56.746  20.039  0.00  0.00    +0.178 C 
BRANCH  16  17
ATOM     17  C   SER A   8      12.515  58.218  20.393  0.00  0.00    +0.243 C 
ATOM     18  O   SER A   8      12.510  58.599  21.585  0.00  0.00    -0.273 OA
ATOM     19  N   GLY A   9      12.402  59.056  19.368  0.00  0.00    -0.295 N 
ATOM     20  H   GLY A   9      12.408  58.679  18.399  0.00  0.00    +0.150 HD
BRANCH  19  21
ATOM     21  CA  GLY A   9      12.267  60.524  19.579  0.00  0.00    +0.176 C 
BRANCH  21  22
ATOM     22  C   GLY A   9      10.905  60.969  20.048  0.00  0.00    +0.243 C 
ATOM     23  O   GLY A   9      10.681  62.155  20.264  0.00  0.00    -0.273 OA
ATOM     24  N   GLY A  10       9.963  60.031  20.188  0.00  0.00    -0.296 N 
ATOM     25  H   GLY A  10      10.176  59.043  19.944  0.00  0.00    +0.150 HD
BRANCH  24  26
ATOM     26  CA  GLY A  10       8.632  60.389  20.683  0.00  0.00    +0.163 C 
BRANCH  26  27
ATOM     27  C   GLY A  10       7.479  60.344  19.657  0.00  0.00    +0.229 C 
ATOM     28  O   GLY A  10       6.524  61.140  19.749  0.00  0.00    -0.286 OA
ENDBRANCH  26  27
ENDBRANCH  24  26
ENDBRANCH  21  22
ENDBRANCH  19  21
ENDBRANCH  16  17
BRANCH  16  29
ATOM     29  CB  SER A   8      14.161  56.391  19.842  0.00  0.00    +0.166 C 
BRANCH  29  30
ATOM     30  OG  SER A   8      14.391  54.985  20.064  0.00  0.00    -0.380 OA
ATOM     31  H   SER A   8      14.128  54.751  20.989  0.00  0.00    +0.211 HD
ENDBRANCH  29  30
ENDBRANCH  16  29
ENDBRANCH  14  16
ENDBRANCH  11  12
BRANCH  11  32
ATOM     32  CB  SER A   7      10.251  55.215  16.942  0.00  0.00    +0.166 C 
BRANCH  32  33
ATOM     33  OG  SER A   7       9.677  54.312  17.955  0.00  0.00    -0.380 OA
ATOM     34  H   SER A   7       9.772  53.374  17.651  0.00  0.00    +0.211 HD
ENDBRANCH  32  33
ENDBRANCH  11  32
ENDBRANCH   9  11
ENDBRANCH   6   7
BRANCH   6  35
ATOM     35  CB  LEU A   6      11.218  60.857  15.455  0.00  0.00    +0.029 C 
BRANCH  35  36
ATOM     36  CG  LEU A   6      12.100  61.506  14.376  0.00  0.00    +0.002 C 
ATOM     37  CD2 LEU A   6      12.850  62.702  14.965  0.00  0.00    +0.000 C 
ATOM     38  CD1 LEU A   6      11.273  61.880  13.013  0.00  0.00    +0.000 C 
ENDBRANCH  35  36
ENDBRANCH   6  35
ENDBRANCH   3   6
ENDBRANCH   1   2
BRANCH   1  40
ATOM     39  C   PRO A   4       9.040  59.218   9.627  0.00  0.00    +0.241 C 
ATOM     40  N   ILE A   5       9.056  58.465  10.709  0.00  0.00    -0.297 N 
ATOM     41  H   ILE A   5       9.595  57.577  10.668  0.00  0.00    +0.150 HD
ATOM     42  O   PRO A   4       8.417  60.261   9.563  0.00  0.00    -0.273 OA
BRANCH  39  46
ATOM     43  C   GLU A   3      12.001  58.847   9.746  0.00  0.00    +0.244 C 
ATOM     44  O   GLU A   3      11.725  60.035   9.962  0.00  0.00    -0.273 OA
ATOM     45  N   PRO A   4      11.192  58.087   9.027  0.00  0.00    -0.272 N 
ATOM     46  CA  PRO A   4       9.945  58.694   8.463  0.00  0.00    +0.152 C 
ATOM     47  CB  PRO A   4       9.307  57.519   7.714  0.00  0.00    +0.031 C 
ATOM     48  CG  PRO A   4      10.431  56.397   7.600  0.00  0.00    +0.024 C 
ATOM     49  CD  PRO A   4      11.672  56.928   8.241  0.00  0.00    +0.094 C 
BRANCH  43  50
ATOM     50  CA  GLU A   3      13.331  58.222  10.298  0.00  0.00    +0.149 C 
BRANCH  50  52
ATOM     51  C   ALA A   2      15.080  59.249   8.851  0.00  0.00    +0.241 C 
ATOM     52  N   GLU A   3      14.363  59.249   9.998  0.00  0.00    -0.297 N 
ATOM     53  H   GLU A   3      14.541  59.997  10.698  0.00  0.00    +0.150 HD
ATOM     54  O   ALA A   2      15.032  58.348   7.946  0.00  0.00    -0.273 OA
BRANCH  51  55
ATOM     55  CA  ALA A   2      15.930  60.439   8.692  0.00  0.00    +0.149 C 
ATOM     56  CB  ALA A   2      15.136  61.488   7.938  0.00  0.00    +0.031 C 
BRANCH  55  59
ATOM     57  C   ILE A   1      18.182  60.964   8.266  0.00  0.00    +0.238 C 
ATOM     58  O   ILE A   1      18.154  61.924   9.049  0.00  0.00    -0.274 OA
ATOM     59  N   ALA A   2      17.140  60.192   8.030  0.00  0.00    -0.297 N 
ATOM     60  H   ALA A   2      17.216  59.404   7.356  0.00  0.00    +0.150 HD
BRANCH  57  61
ATOM     61  CA  ILE A   1      19.415  60.686   7.410  0.00  0.00    +0.145 C 
BRANCH  61  62
ATOM     62  CB  ILE A   1      20.455  59.747   8.082  0.00  0.00    +0.025 C 
ATOM     63  CG2 ILE A   1      21.171  60.410   9.243  0.00  0.00    +0.002 C 
BRANCH  62  64
ATOM     64  CG1 ILE A   1      19.806  58.469   8.495  0.00  0.00    +0.002 C 
ATOM     65  CD1 ILE A   1      20.855  57.405   8.768  0.00  0.00    +0.000 C 
ENDBRANCH  62  64
ENDBRANCH  61  62
BRANCH  61  66
ATOM     66  N   ILE A   1      20.038  61.930   6.989  0.00  0.00    -0.238 NA
ATOM     67  H   ILE A   1      20.445  62.582   7.690  0.00  0.00    +0.142 HD
ENDBRANCH  61  66
ENDBRANCH  57  61
ENDBRANCH  55  59
ENDBRANCH  51  55
ENDBRANCH  50  52
BRANCH  50  68
ATOM     68  CB  GLU A   3      13.172  58.031  11.809  0.00  0.00    +0.041 C 
BRANCH  68  69
ATOM     69  CG  GLU A   3      14.167  57.136  12.499  0.00  0.00    +0.116 C 
BRANCH  69  70
ATOM     70  CD  GLU A   3      14.240  57.471  13.966  0.00  0.00    +0.365 C 
ATOM     71  OE2 GLU A   3      13.577  56.751  14.763  0.00  0.00    -0.246 OA
ATOM     72  OE1 GLU A   3      14.806  58.566  14.283  0.00  0.00    -0.246 OA
ENDBRANCH  69  70
ENDBRANCH  68  69
ENDBRANCH  50  68
ENDBRANCH  43  50
ENDBRANCH  39  46
ENDBRANCH   1  40
BRANCH   1  73
ATOM     73  CB  ILE A   5       7.222  57.775  12.224  0.00  0.00    +0.027 C 
ATOM     74  CG2 ILE A   5       6.658  57.942  13.561  0.00  0.00    +0.002 C 
BRANCH  73  75
ATOM     75  CG1 ILE A   5       6.078  57.910  11.223  0.00  0.00    +0.002 C 
ATOM     76  CD1 ILE A   5       4.846  56.986  11.640  0.00  0.00    +0.000 C 
ENDBRANCH  73  75
ENDBRANCH   1  73
TORSDOF 32
REMARK  Name = ../refined-set-2016/1m0n/1m0n_pocket.pdb
REMARK  234 active torsions:
REMARK  status: ('A' for Active; 'I' for Inactive)
REMARK    1  A    between atoms: _1  and  _3
REMARK    2  A    between atoms: _3  and  _4
REMARK    3  A    between atoms: _3  and  _6
REMARK    4  A    between atoms: _6  and  _7
REMARK    5  A    between atoms: _10  and  _12
REMARK    6  A    between atoms: _12  and  _13
REMARK    7  A    between atoms: _12  and  _15
REMARK    8  A    between atoms: _15  and  _16
REMARK    9  A    between atoms: _18  and  _20
REMARK   10  A    between atoms: _20  and  _21
REMARK   11  A    between atoms: _23  and  _25
REMARK   12  A    between atoms: _25  and  _26
REMARK   13  A    between atoms: _25  and  _28
REMARK   14  A    between atoms: _28  and  _29
REMARK   15  A    between atoms: _29  and  _30
REMARK   16  A    between atoms: _35  and  _37
REMARK   17  A    between atoms: _37  and  _38
REMARK   18  A    between atoms: _37  and  _40
REMARK   19  A    between atoms: _40  and  _41
REMARK   20  A    between atoms: _41  and  _42
REMARK   21  A    between atoms: _44  and  _46
REMARK   22  A    between atoms: _46  and  _47
REMARK   23  A    between atoms: _46  and  _49
REMARK   24  A    between atoms: _49  and  _50
REMARK   25  A    between atoms: _52  and  _54
REMARK   26  A    between atoms: _54  and  _55
REMARK   27  A    between atoms: _54  and  _57
REMARK   28  A    between atoms: _57  and  _58
REMARK   29  A    between atoms: _60  and  _62
REMARK   30  A    between atoms: _62  and  _63
REMARK   31  A    between atoms: _62  and  _65
REMARK   32  A    between atoms: _65  and  _66
REMARK   33  A    between atoms: _69  and  _71
REMARK   34  A    between atoms: _71  and  _72
REMARK   35  A    between atoms: _74  and  _76
REMARK   36  A    between atoms: _76  and  _77
REMARK   37  A    between atoms: _80  and  _82
REMARK   38  A    between atoms: _82  and  _83
REMARK   39  A    between atoms: _82  and  _85
REMARK   40  A    between atoms: _85  and  _86
REMARK   41  A    between atoms: _86  and  _87
REMARK   42  A    between atoms: _90  and  _92
REMARK   43  A    between atoms: _92  and  _93
REMARK   44  A    between atoms: _92  and  _95
REMARK   45  A    between atoms: _95  and  _96
REMARK   46  A    between atoms: _98  and  _100
REMARK   47  A    between atoms: _100  and  _101
REMARK   48  A    between atoms: _100  and  _103
REMARK   49  A    between atoms: _103  and  _104
REMARK   50  A    between atoms: _109  and  _111
REMARK   51  A    between atoms: _111  and  _112
REMARK   52  A    between atoms: _111  and  _114
REMARK   53  A    between atoms: _114  and  _115
REMARK   54  A    between atoms: _115  and  _116
REMARK   55  A    between atoms: _119  and  _121
REMARK   56  A    between atoms: _121  and  _122
REMARK   57  A    between atoms: _121  and  _124
REMARK   58  A    between atoms: _124  and  _125
REMARK   59  A    between atoms: _127  and  _129
REMARK   60  A    between atoms: _129  and  _130
REMARK   61  A    between atoms: _129  and  _132
REMARK   62  A    between atoms: _132  and  _133
REMARK   63  A    between atoms: _143  and  _145
REMARK   64  A    between atoms: _145  and  _146
REMARK   65  A    between atoms: _145  and  _148
REMARK   66  A    between atoms: _148  and  _149
REMARK   67  A    between atoms: _154  and  _156
REMARK   68  A    between atoms: _156  and  _157
REMARK   69  A    between atoms: _159  and  _161
REMARK   70  A    between atoms: _161  and  _162
REMARK   71  A    between atoms: _161  and  _164
REMARK   72  A    between atoms: _164  and  _165
REMARK   73  A    between atoms: _165  and  _166
REMARK   74  A    between atoms: _168  and  _170
REMARK   75  A    between atoms: _170  and  _171
REMARK   76  A    between atoms: _170  and  _173
REMARK   77  A    between atoms: _173  and  _174
REMARK   78  A    between atoms: _177  and  _179
REMARK   79  A    between atoms: _179  and  _180
REMARK   80  A    between atoms: _183  and  _185
REMARK   81  A    between atoms: _185  and  _186
REMARK   82  A    between atoms: _185  and  _188
REMARK   83  A    between atoms: _188  and  _189
REMARK   84  A    between atoms: _192  and  _194
REMARK   85  A    between atoms: _194  and  _195
REMARK   86  A    between atoms: _194  and  _197
REMARK   87  A    between atoms: _197  and  _198
REMARK   88  A    between atoms: _200  and  _202
REMARK   89  A    between atoms: _202  and  _203
REMARK   90  A    between atoms: _202  and  _205
REMARK   91  A    between atoms: _205  and  _206
REMARK   92  A    between atoms: _209  and  _211
REMARK   93  A    between atoms: _211  and  _212
REMARK   94  A    between atoms: _215  and  _217
REMARK   95  A    between atoms: _217  and  _218
REMARK   96  A    between atoms: _217  and  _220
REMARK   97  A    between atoms: _220  and  _221
REMARK   98  A    between atoms: _221  and  _222
REMARK   99  A    between atoms: _226  and  _227
REMARK  100  A    between atoms: _232  and  _234
REMARK  101  A    between atoms: _234  and  _235
REMARK  102  A    between atoms: _234  and  _237
REMARK  103  A    between atoms: _237  and  _238
REMARK  104  A    between atoms: _241  and  _243
REMARK  105  A    between atoms: _243  and  _244
REMARK  106  A    between atoms: _243  and  _246
REMARK  107  A    between atoms: _246  and  _247
REMARK  108  A    between atoms: _250  and  _252
REMARK  109  A    between atoms: _252  and  _253
REMARK  110  A    between atoms: _252  and  _255
REMARK  111  A    between atoms: _255  and  _256
REMARK  112  A    between atoms: _258  and  _260
REMARK  113  A    between atoms: _260  and  _261
REMARK  114  A    between atoms: _260  and  _263
REMARK  115  A    between atoms: _263  and  _264
REMARK  116  A    between atoms: _266  and  _268
REMARK  117  A    between atoms: _268  and  _269
REMARK  118  A    between atoms: _271  and  _273
REMARK  119  A    between atoms: _273  and  _274
REMARK  120  A    between atoms: _276  and  _278
REMARK  121  A    between atoms: _278  and  _279
REMARK  122  A    between atoms: _278  and  _281
REMARK  123  A    between atoms: _281  and  _282
REMARK  124  A    between atoms: _285  and  _287
REMARK  125  A    between atoms: _287  and  _288
REMARK  126  A    between atoms: _287  and  _290
REMARK  127  A    between atoms: _290  and  _291
REMARK  128  A    between atoms: _291  and  _292
REMARK  129  A    between atoms: _295  and  _297
REMARK  130  A    between atoms: _297  and  _298
REMARK  131  A    between atoms: _301  and  _303
REMARK  132  A    between atoms: _303  and  _304
REMARK  133  A    between atoms: _303  and  _306
REMARK  134  A    between atoms: _306  and  _307
REMARK  135  A    between atoms: _307  and  _308
REMARK  136  A    between atoms: _313  and  _315
REMARK  137  A    between atoms: _315  and  _316
REMARK  138  A    between atoms: _315  and  _318
REMARK  139  A    between atoms: _318  and  _319
REMARK  140  A    between atoms: _322  and  _324
REMARK  141  A    between atoms: _324  and  _325
REMARK  142  A    between atoms: _327  and  _329
REMARK  143  A    between atoms: _329  and  _330
REMARK  144  A    between atoms: _329  and  _332
REMARK  145  A    between atoms: _332  and  _333
REMARK  146  A    between atoms: _336  and  _338
REMARK  147  A    between atoms: _338  and  _339
REMARK  148  A    between atoms: _338  and  _341
REMARK  149  A    between atoms: _341  and  _342
REMARK  150  A    between atoms: _345  and  _347
REMARK  151  A    between atoms: _347  and  _348
REMARK  152  A    between atoms: _347  and  _350
REMARK  153  A    between atoms: _350  and  _351
REMARK  154  A    between atoms: _353  and  _355
REMARK  155  A    between atoms: _355  and  _356
REMARK  156  A    between atoms: _355  and  _358
REMARK  157  A    between atoms: _358  and  _359
REMARK  158  A    between atoms: _359  and  _360
REMARK  159  A    between atoms: _360  and  _361
REMARK  160  A    between atoms: _361  and  _362
REMARK  161  A    between atoms: _367  and  _368
REMARK  162  A    between atoms: _373  and  _375
REMARK  163  A    between atoms: _375  and  _376
REMARK  164  A    between atoms: _375  and  _378
REMARK  165  A    between atoms: _378  and  _379
REMARK  166  A    between atoms: _382  and  _384
REMARK  167  A    between atoms: _384  and  _385
REMARK  168  A    between atoms: _388  and  _390
REMARK  169  A    between atoms: _390  and  _391
REMARK  170  A    between atoms: _390  and  _393
REMARK  171  A    between atoms: _393  and  _394
REMARK  172  A    between atoms: _399  and  _401
REMARK  173  A    between atoms: _401  and  _402
REMARK  174  A    between atoms: _401  and  _404
REMARK  175  A    between atoms: _407  and  _409
REMARK  176  A    between atoms: _409  and  _410
REMARK  177  A    between atoms: _409  and  _412
REMARK  178  A    between atoms: _412  and  _413
REMARK  179  A    between atoms: _413  and  _414
REMARK  180  A    between atoms: _414  and  _415
REMARK  181  A    between atoms: _424  and  _426
REMARK  182  A    between atoms: _426  and  _427
REMARK  183  A    between atoms: _426  and  _429
REMARK  184  A    between atoms: _429  and  _430
REMARK  185  A    between atoms: _435  and  _437
REMARK  186  A    between atoms: _437  and  _438
REMARK  187  A    between atoms: _437  and  _440
REMARK  188  A    between atoms: _440  and  _441
REMARK  189  A    between atoms: _447  and  _449
REMARK  190  A    between atoms: _449  and  _450
REMARK  191  A    between atoms: _449  and  _452
REMARK  192  A    between atoms: _452  and  _453
REMARK  193  A    between atoms: _455  and  _457
REMARK  194  A    between atoms: _457  and  _458
REMARK  195  A    between atoms: _457  and  _460
REMARK  196  A    between atoms: _460  and  _461
REMARK  197  A    between atoms: _461  and  _462
REMARK  198  A    between atoms: _465  and  _467
REMARK  199  A    between atoms: _467  and  _468
REMARK  200  A    between atoms: _467  and  _470
REMARK  201  A    between atoms: _470  and  _471
REMARK  202  A    between atoms: _473  and  _475
REMARK  203  A    between atoms: _475  and  _476
REMARK  204  A    between atoms: _475  and  _478
REMARK  205  A    between atoms: _478  and  _479
REMARK  206  A    between atoms: _479  and  _480
REMARK  207  A    between atoms: _483  and  _485
REMARK  208  A    between atoms: _485  and  _486
REMARK  209  A    between atoms: _485  and  _488
REMARK  210  A    between atoms: _488  and  _489
REMARK  211  A    between atoms: _492  and  _494
REMARK  212  A    between atoms: _494  and  _495
REMARK  213  A    between atoms: _494  and  _497
REMARK  214  A    between atoms: _497  and  _498
REMARK  215  A    between atoms: _504  and  _506
REMARK  216  A    between atoms: _506  and  _507
REMARK  217  A    between atoms: _506  and  _509
REMARK  218  A    between atoms: _509  and  _510
REMARK  219  A    between atoms: _515  and  _516
REMARK  220  A    between atoms: _518  and  _520
REMARK  221  A    between atoms: _520  and  _521
REMARK  222  A    between atoms: _520  and  _523
REMARK  223  A    between atoms: _523  and  _524
REMARK  224  A    between atoms: _527  and  _529
REMARK  225  A    between atoms: _529  and  _530
REMARK  226  A    between atoms: _529  and  _532
REMARK  227  A    between atoms: _532  and  _533
REMARK  228  A    between atoms: _536  and  _538
REMARK  229  A    between atoms: _538  and  _539
REMARK  230  A    between atoms: _538  and  _541
REMARK  231  A    between atoms: _541  and  _542
REMARK  232  A    between atoms: _547  and  _549
REMARK  233  A    between atoms: _549  and  _550
REMARK  234  A    between atoms: _549  and  _552
REMARK                            x       y       z     vdW  Elec       q    Type
REMARK                         _______ _______ _______ _____ _____    ______ ____
ROOT
ATOM      1  C   ALA A   3      12.772  49.500  11.737  0.00  0.00    +0.241 C 
ATOM      2  N   GLN A   4      11.896  50.450  12.031  0.00  0.00    -0.297 N 
ATOM      3  H   GLN A   4      12.112  51.426  11.745  0.00  0.00    +0.150 HD
ATOM      4  O   ALA A   3      12.564  48.295  11.994  0.00  0.00    -0.273 OA
ENDROOT
BRANCH   1   5
ATOM      5  CA  ALA A   3      14.108  50.008  11.026  0.00  0.00    +0.149 C 
ATOM      6  CB  ALA A   3      15.209  50.366  12.055  0.00  0.00    +0.031 C 
BRANCH   5   8
ATOM      7  C   GLU A   2      13.001  51.079   9.091  0.00  0.00    +0.241 C 
ATOM      8  N   ALA A   3      13.930  51.134  10.064  0.00  0.00    -0.297 N 
ATOM      9  H   ALA A   3      14.534  51.976  10.146  0.00  0.00    +0.150 HD
ATOM     10  O   GLU A   2      12.226  50.044   8.907  0.00  0.00    -0.273 OA
BRANCH   7  11
ATOM     11  CA  GLU A   2      12.907  52.381   8.211  0.00  0.00    +0.149 C 
BRANCH  11  14
ATOM     12  C   ASP A   1      14.611  54.157   8.505  0.00  0.00    +0.239 C 
ATOM     13  O   ASP A   1      13.879  54.726   9.274  0.00  0.00    -0.274 OA
ATOM     14  N   GLU A   2      14.231  53.008   7.903  0.00  0.00    -0.297 N 
ATOM     15  H   GLU A   2      14.867  52.554   7.217  0.00  0.00    +0.150 HD
BRANCH  12  16
ATOM     16  CA  ASP A   1      16.005  54.796   8.181  0.00  0.00    +0.156 C 
BRANCH  16  17
ATOM     17  N   ASP A   1      15.782  55.901   7.218  0.00  0.00    -0.238 NA
ATOM     18  H   ASP A   1      15.658  56.871   7.571  0.00  0.00    +0.142 HD
ENDBRANCH  16  17
BRANCH  16  19
ATOM     19  CB  ASP A   1      16.701  55.408   9.497  0.00  0.00    +0.140 C 
BRANCH  19  20
ATOM     20  CG  ASP A   1      17.017  54.341  10.560  0.00  0.00    +0.367 C 
ATOM     21  OD2 ASP A   1      17.796  54.621  11.551  0.00  0.00    -0.246 OA
ATOM     22  OD1 ASP A   1      16.476  53.197  10.360  0.00  0.00    -0.246 OA
ENDBRANCH  19  20
ENDBRANCH  16  19
ENDBRANCH  12  16
ENDBRANCH  11  14
BRANCH  11  23
ATOM     23  CB  GLU A   2      12.111  52.140   6.942  0.00  0.00    +0.041 C 
BRANCH  23  24
ATOM     24  CG  GLU A   2      11.696  53.448   6.323  0.00  0.00    +0.116 C 
BRANCH  24  25
ATOM     25  CD  GLU A   2      10.320  53.360   5.649  0.00  0.00    +0.365 C 
ATOM     26  OE2 GLU A   2       9.452  52.540   6.102  0.00  0.00    -0.246 OA
ATOM     27  OE1 GLU A   2      10.119  54.123   4.678  0.00  0.00    -0.246 OA
ENDBRANCH  24  25
ENDBRANCH  23  24
ENDBRANCH  11  23
ENDBRANCH   7  11
ENDBRANCH   5   8
ENDBRANCH   1   5
BRANCH   2  28
ATOM     28  CA  GLN A   4      10.658  50.199  12.728  0.00  0.00    +0.149 C 
BRANCH  28  29
ATOM     29  C   GLN A   4       9.460  50.589  11.888  0.00  0.00    +0.241 C 
ATOM     30  O   GLN A   4       8.367  50.119  12.154  0.00  0.00    -0.273 OA
ATOM     31  N   THR A   5       9.610  51.581  11.005  0.00  0.00    -0.295 N 
ATOM     32  H   THR A   5      10.533  52.044  10.881  0.00  0.00    +0.150 HD
BRANCH  31  33
ATOM     33  CA  THR A   5       8.448  52.007  10.212  0.00  0.00    +0.176 C 
BRANCH  33  34
ATOM     34  C   THR A   5       8.232  51.107   9.016  0.00  0.00    +0.243 C 
ATOM     35  N   GLY A   6       9.278  50.360   8.658  0.00  0.00    -0.296 N 
ATOM     36  H   GLY A   6      10.136  50.365   9.245  0.00  0.00    +0.150 HD
ATOM     37  O   THR A   5       7.146  51.091   8.442  0.00  0.00    -0.273 OA
BRANCH  35  38
ATOM     38  CA  GLY A   6       9.235  49.556   7.482  0.00  0.00    +0.163 C 
BRANCH  38  39
ATOM     39  C   GLY A   6       8.488  48.318   7.654  0.00  0.00    +0.229 C 
ATOM     40  O   GLY A   6       8.192  47.922   8.738  0.00  0.00    -0.286 OA
ENDBRANCH  38  39
ENDBRANCH  35  38
ENDBRANCH  33  34
BRANCH  33  41
ATOM     41  CB  THR A   5       8.567  53.404   9.680  0.00  0.00    +0.137 C 
ATOM     42  CG2 THR A   5       8.696  54.412  10.808  0.00  0.00    +0.034 C 
BRANCH  41  43
ATOM     43  OG1 THR A   5       9.676  53.497   8.794  0.00  0.00    -0.382 OA
ATOM     44  HG1 THR A   5       9.546  52.871   8.038  0.00  0.00    +0.210 HD
ENDBRANCH  41  43
ENDBRANCH  33  41
ENDBRANCH  31  33
ENDBRANCH  28  29
BRANCH  28  45
ATOM     45  CB  GLN A   4      10.590  51.136  13.983  0.00  0.00    +0.039 C 
BRANCH  45  46
ATOM     46  CG  GLN A   4      11.638  50.886  14.968  0.00  0.00    +0.087 C 
BRANCH  46  47
ATOM     47  CD  GLN A   4      11.433  51.585  16.278  0.00  0.00    +0.219 C 
ATOM     48  NE2 GLN A   4      12.540  51.945  16.891  0.00  0.00    -0.329 N 
ATOM     49 HE21 GLN A   4      12.492  52.408  17.821  0.00  0.00    +0.145 HD
ATOM     50 HE22 GLN A   4      13.463  51.767  16.445  0.00  0.00    +0.145 HD
ATOM     51  OE1 GLN A   4      10.287  51.777  16.773  0.00  0.00    -0.275 OA
ENDBRANCH  46  47
ENDBRANCH  45  46
ENDBRANCH  28  45
ENDBRANCH   2  28
TORSDOF 22
REMARK  Name = ../refined-set-2016/1m0n/1m0n_pocket.pdb
REMARK  234 active torsions:
REMARK  status: ('A' for Active; 'I' for Inactive)
REMARK    1  A    between atoms: _1  and  _3
REMARK    2  A    between atoms: _3  and  _4
REMARK    3  A    between atoms: _3  and  _6
REMARK    4  A    between atoms: _6  and  _7
REMARK    5  A    between atoms: _10  and  _12
REMARK    6  A    between atoms: _12  and  _13
REMARK    7  A    between atoms: _12  and  _15
REMARK    8  A    between atoms: _15  and  _16
REMARK    9  A    between atoms: _18  and  _20
REMARK   10  A    between atoms: _20  and  _21
REMARK   11  A    between atoms: _23  and  _25
REMARK   12  A    between atoms: _25  and  _26
REMARK   13  A    between atoms: _25  and  _28
REMARK   14  A    between atoms: _28  and  _29
REMARK   15  A    between atoms: _29  and  _30
REMARK   16  A    between atoms: _35  and  _37
REMARK   17  A    between atoms: _37  and  _38
REMARK   18  A    between atoms: _37  and  _40
REMARK   19  A    between atoms: _40  and  _41
REMARK   20  A    between atoms: _41  and  _42
REMARK   21  A    between atoms: _44  and  _46
REMARK   22  A    between atoms: _46  and  _47
REMARK   23  A    between atoms: _46  and  _49
REMARK   24  A    between atoms: _49  and  _50
REMARK   25  A    between atoms: _52  and  _54
REMARK   26  A    between atoms: _54  and  _55
REMARK   27  A    between atoms: _54  and  _57
REMARK   28  A    between atoms: _57  and  _58
REMARK   29  A    between atoms: _60  and  _62
REMARK   30  A    between atoms: _62  and  _63
REMARK   31  A    between atoms: _62  and  _65
REMARK   32  A    between atoms: _65  and  _66
REMARK   33  A    between atoms: _69  and  _71
REMARK   34  A    between atoms: _71  and  _72
REMARK   35  A    between atoms: _74  and  _76
REMARK   36  A    between atoms: _76  and  _77
REMARK   37  A    between atoms: _80  and  _82
REMARK   38  A    between atoms: _82  and  _83
REMARK   39  A    between atoms: _82  and  _85
REMARK   40  A    between atoms: _85  and  _86
REMARK   41  A    between atoms: _86  and  _87
REMARK   42  A    between atoms: _90  and  _92
REMARK   43  A    between atoms: _92  and  _93
REMARK   44  A    between atoms: _92  and  _95
REMARK   45  A    between atoms: _95  and  _96
REMARK   46  A    between atoms: _98  and  _100
REMARK   47  A    between atoms: _100  and  _101
REMARK   48  A    between atoms: _100  and  _103
REMARK   49  A    between atoms: _103  and  _104
REMARK   50  A    between atoms: _109  and  _111
REMARK   51  A    between atoms: _111  and  _112
REMARK   52  A    between atoms: _111  and  _114
REMARK   53  A    between atoms: _114  and  _115
REMARK   54  A    between atoms: _115  and  _116
REMARK   55  A    between atoms: _119  and  _121
REMARK   56  A    between atoms: _121  and  _122
REMARK   57  A    between atoms: _121  and  _124
REMARK   58  A    between atoms: _124  and  _125
REMARK   59  A    between atoms: _127  and  _129
REMARK   60  A    between atoms: _129  and  _130
REMARK   61  A    between atoms: _129  and  _132
REMARK   62  A    between atoms: _132  and  _133
REMARK   63  A    between atoms: _143  and  _145
REMARK   64  A    between atoms: _145  and  _146
REMARK   65  A    between atoms: _145  and  _148
REMARK   66  A    between atoms: _148  and  _149
REMARK   67  A    between atoms: _154  and  _156
REMARK   68  A    between atoms: _156  and  _157
REMARK   69  A    between atoms: _159  and  _161
REMARK   70  A    between atoms: _161  and  _162
REMARK   71  A    between atoms: _161  and  _164
REMARK   72  A    between atoms: _164  and  _165
REMARK   73  A    between atoms: _165  and  _166
REMARK   74  A    between atoms: _168  and  _170
REMARK   75  A    between atoms: _170  and  _171
REMARK   76  A    between atoms: _170  and  _173
REMARK   77  A    between atoms: _173  and  _174
REMARK   78  A    between atoms: _177  and  _179
REMARK   79  A    between atoms: _179  and  _180
REMARK   80  A    between atoms: _183  and  _185
REMARK   81  A    between atoms: _185  and  _186
REMARK   82  A    between atoms: _185  and  _188
REMARK   83  A    between atoms: _188  and  _189
REMARK   84  A    between atoms: _192  and  _194
REMARK   85  A    between atoms: _194  and  _195
REMARK   86  A    between atoms: _194  and  _197
REMARK   87  A    between atoms: _197  and  _198
REMARK   88  A    between atoms: _200  and  _202
REMARK   89  A    between atoms: _202  and  _203
REMARK   90  A    between atoms: _202  and  _205
REMARK   91  A    between atoms: _205  and  _206
REMARK   92  A    between atoms: _209  and  _211
REMARK   93  A    between atoms: _211  and  _212
REMARK   94  A    between atoms: _215  and  _217
REMARK   95  A    between atoms: _217  and  _218
REMARK   96  A    between atoms: _217  and  _220
REMARK   97  A    between atoms: _220  and  _221
REMARK   98  A    between atoms: _221  and  _222
REMARK   99  A    between atoms: _226  and  _227
REMARK  100  A    between atoms: _232  and  _234
REMARK  101  A    between atoms: _234  and  _235
REMARK  102  A    between atoms: _234  and  _237
REMARK  103  A    between atoms: _237  and  _238
REMARK  104  A    between atoms: _241  and  _243
REMARK  105  A    between atoms: _243  and  _244
REMARK  106  A    between atoms: _243  and  _246
REMARK  107  A    between atoms: _246  and  _247
REMARK  108  A    between atoms: _250  and  _252
REMARK  109  A    between atoms: _252  and  _253
REMARK  110  A    between atoms: _252  and  _255
REMARK  111  A    between atoms: _255  and  _256
REMARK  112  A    between atoms: _258  and  _260
REMARK  113  A    between atoms: _260  and  _261
REMARK  114  A    between atoms: _260  and  _263
REMARK  115  A    between atoms: _263  and  _264
REMARK  116  A    between atoms: _266  and  _268
REMARK  117  A    between atoms: _268  and  _269
REMARK  118  A    between atoms: _271  and  _273
REMARK  119  A    between atoms: _273  and  _274
REMARK  120  A    between atoms: _276  and  _278
REMARK  121  A    between atoms: _278  and  _279
REMARK  122  A    between atoms: _278  and  _281
REMARK  123  A    between atoms: _281  and  _282
REMARK  124  A    between atoms: _285  and  _287
REMARK  125  A    between atoms: _287  and  _288
REMARK  126  A    between atoms: _287  and  _290
REMARK  127  A    between atoms: _290  and  _291
REMARK  128  A    between atoms: _291  and  _292
REMARK  129  A    between atoms: _295  and  _297
REMARK  130  A    between atoms: _297  and  _298
REMARK  131  A    between atoms: _301  and  _303
REMARK  132  A    between atoms: _303  and  _304
REMARK  133  A    between atoms: _303  and  _306
REMARK  134  A    between atoms: _306  and  _307
REMARK  135  A    between atoms: _307  and  _308
REMARK  136  A    between atoms: _313  and  _315
REMARK  137  A    between atoms: _315  and  _316
REMARK  138  A    between atoms: _315  and  _318
REMARK  139  A    between atoms: _318  and  _319
REMARK  140  A    between atoms: _322  and  _324
REMARK  141  A    between atoms: _324  and  _325
REMARK  142  A    between atoms: _327  and  _329
REMARK  143  A    between atoms: _329  and  _330
REMARK  144  A    between atoms: _329  and  _332
REMARK  145  A    between atoms: _332  and  _333
REMARK  146  A    between atoms: _336  and  _338
REMARK  147  A    between atoms: _338  and  _339
REMARK  148  A    between atoms: _338  and  _341
REMARK  149  A    between atoms: _341  and  _342
REMARK  150  A    between atoms: _345  and  _347
REMARK  151  A    between atoms: _347  and  _348
REMARK  152  A    between atoms: _347  and  _350
REMARK  153  A    between atoms: _350  and  _351
REMARK  154  A    between atoms: _353  and  _355
REMARK  155  A    between atoms: _355  and  _356
REMARK  156  A    between atoms: _355  and  _358
REMARK  157  A    between atoms: _358  and  _359
REMARK  158  A    between atoms: _359  and  _360
REMARK  159  A    between atoms: _360  and  _361
REMARK  160  A    between atoms: _361  and  _362
REMARK  161  A    between atoms: _367  and  _368
REMARK  162  A    between atoms: _373  and  _375
REMARK  163  A    between atoms: _375  and  _376
REMARK  164  A    between atoms: _375  and  _378
REMARK  165  A    between atoms: _378  and  _379
REMARK  166  A    between atoms: _382  and  _384
REMARK  167  A    between atoms: _384  and  _385
REMARK  168  A    between atoms: _388  and  _390
REMARK  169  A    between atoms: _390  and  _391
REMARK  170  A    between atoms: _390  and  _393
REMARK  171  A    between atoms: _393  and  _394
REMARK  172  A    between atoms: _399  and  _401
REMARK  173  A    between atoms: _401  and  _402
REMARK  174  A    between atoms: _401  and  _404
REMARK  175  A    between atoms: _407  and  _409
REMARK  176  A    between atoms: _409  and  _410
REMARK  177  A    between atoms: _409  and  _412
REMARK  178  A    between atoms: _412  and  _413
REMARK  179  A    between atoms: _413  and  _414
REMARK  180  A    between atoms: _414  and  _415
REMARK  181  A    between atoms: _424  and  _426
REMARK  182  A    between atoms: _426  and  _427
REMARK  183  A    between atoms: _426  and  _429
REMARK  184  A    between atoms: _429  and  _430
REMARK  185  A    between atoms: _435  and  _437
REMARK  186  A    between atoms: _437  and  _438
REMARK  187  A    between atoms: _437  and  _440
REMARK  188  A    between atoms: _440  and  _441
REMARK  189  A    between atoms: _447  and  _449
REMARK  190  A    between atoms: _449  and  _450
REMARK  191  A    between atoms: _449  and  _452
REMARK  192  A    between atoms: _452  and  _453
REMARK  193  A    between atoms: _455  and  _457
REMARK  194  A    between atoms: _457  and  _458
REMARK  195  A    between atoms: _457  and  _460
REMARK  196  A    between atoms: _460  and  _461
REMARK  197  A    between atoms: _461  and  _462
REMARK  198  A    between atoms: _465  and  _467
REMARK  199  A    between atoms: _467  and  _468
REMARK  200  A    between atoms: _467  and  _470
REMARK  201  A    between atoms: _470  and  _471
REMARK  202  A    between atoms: _473  and  _475
REMARK  203  A    between atoms: _475  and  _476
REMARK  204  A    between atoms: _475  and  _478
REMARK  205  A    between atoms: _478  and  _479
REMARK  206  A    between atoms: _479  and  _480
REMARK  207  A    between atoms: _483  and  _485
REMARK  208  A    between atoms: _485  and  _486
REMARK  209  A    between atoms: _485  and  _488
REMARK  210  A    between atoms: _488  and  _489
REMARK  211  A    between atoms: _492  and  _494
REMARK  212  A    between atoms: _494  and  _495
REMARK  213  A    between atoms: _494  and  _497
REMARK  214  A    between atoms: _497  and  _498
REMARK  215  A    between atoms: _504  and  _506
REMARK  216  A    between atoms: _506  and  _507
REMARK  217  A    between atoms: _506  and  _509
REMARK  218  A    between atoms: _509  and  _510
REMARK  219  A    between atoms: _515  and  _516
REMARK  220  A    between atoms: _518  and  _520
REMARK  221  A    between atoms: _520  and  _521
REMARK  222  A    between atoms: _520  and  _523
REMARK  223  A    between atoms: _523  and  _524
REMARK  224  A    between atoms: _527  and  _529
REMARK  225  A    between atoms: _529  and  _530
REMARK  226  A    between atoms: _529  and  _532
REMARK  227  A    between atoms: _532  and  _533
REMARK  228  A    between atoms: _536  and  _538
REMARK  229  A    between atoms: _538  and  _539
REMARK  230  A    between atoms: _538  and  _541
REMARK  231  A    between atoms: _541  and  _542
REMARK  232  A    between atoms: _547  and  _549
REMARK  233  A    between atoms: _549  and  _550
REMARK  234  A    between atoms: _549  and  _552
REMARK                            x       y       z     vdW  Elec       q    Type
REMARK                         _______ _______ _______ _____ _____    ______ ____
ROOT
ATOM      1  C   LEU A   2      16.424  47.208   8.204  0.00  0.00    +0.241 C 
ATOM      2  N   SER A   3      15.615  46.742   9.183  0.00  0.00    -0.295 N 
ATOM      3  H   SER A   3      14.619  47.039   9.231  0.00  0.00    +0.150 HD
ATOM      4  O   LEU A   2      17.624  46.887   8.104  0.00  0.00    -0.273 OA
ENDROOT
BRANCH   2   5
ATOM      5  CA  SER A   3      16.162  45.814  10.174  0.00  0.00    +0.178 C 
BRANCH   5   6
ATOM      6  C   SER A   3      15.208  45.174  11.107  0.00  0.00    +0.243 C 
ATOM      7  N   LYS A   4      14.786  45.951  12.097  0.00  0.00    -0.298 N 
ATOM      8  H   LYS A   4      15.057  46.955  12.072  0.00  0.00    +0.150 HD
ATOM      9  O   SER A   3      14.899  44.006  10.967  0.00  0.00    -0.273 OA
BRANCH   7  10
ATOM     10  CA  LYS A   4      13.963  45.494  13.227  0.00  0.00    +0.137 C 
BRANCH  10  11
ATOM     11  C   LYS A   4      12.830  44.691  12.820  0.00  0.00    +0.227 C 
ATOM     12  O   LYS A   4      12.733  43.513  13.159  0.00  0.00    -0.286 OA
ENDBRANCH  10  11
BRANCH  10  13
ATOM     13  CB  LYS A   4      13.495  46.686  14.083  0.00  0.00    +0.028 C 
BRANCH  13  14
ATOM     14  CG  LYS A   4      14.693  47.595  14.690  0.00  0.00    -0.000 C 
BRANCH  14  15
ATOM     15  CD  LYS A   4      14.259  49.049  15.192  0.00  0.00    -0.024 C 
BRANCH  15  16
ATOM     16  CE  LYS A   4      13.333  48.989  16.466  0.00  0.00    -0.086 C 
BRANCH  16  17
ATOM     17  NZ  LYS A   4      13.870  48.102  17.509  0.00  0.00    +0.380 N 
ATOM     18  HZ1 LYS A   4      13.225  48.098  18.325  0.00  0.00    -0.089 HD
ATOM     19  HZ2 LYS A   4      14.805  48.446  17.807  0.00  0.00    -0.089 HD
ATOM     20  HZ3 LYS A   4      13.959  47.137  17.130  0.00  0.00    -0.089 HD
ENDBRANCH  16  17
ENDBRANCH  15  16
ENDBRANCH  14  15
ENDBRANCH  13  14
ENDBRANCH  10  13
ENDBRANCH   7  10
ENDBRANCH   5   6
BRANCH   5  21
ATOM     21  CB  SER A   3      17.275  46.463  10.957  0.00  0.00    +0.166 C 
BRANCH  21  22
ATOM     22  OG  SER A   3      16.908  47.832  11.334  0.00  0.00    -0.380 OA
ATOM     23  H   SER A   3      16.737  48.364  10.517  0.00  0.00    +0.211 HD
ENDBRANCH  21  22
ENDBRANCH   5  21
ENDBRANCH   2   5
BRANCH   1  24
ATOM     24  CA  LEU A   2      15.775  48.110   7.152  0.00  0.00    +0.149 C 
BRANCH  24  27
ATOM     25  C   THR A   1      16.551  50.166   6.235  0.00  0.00    +0.241 C 
ATOM     26  O   THR A   1      15.614  50.755   6.616  0.00  0.00    -0.274 OA
ATOM     27  N   LEU A   2      16.751  48.905   6.482  0.00  0.00    -0.297 N 
ATOM     28  H   LEU A   2      17.645  48.465   6.183  0.00  0.00    +0.150 HD
BRANCH  25  29
ATOM     29  CA  THR A   1      17.610  50.847   5.505  0.00  0.00    +0.172 C 
BRANCH  29  30
ATOM     30  CB  THR A   1      18.702  51.422   6.493  0.00  0.00    +0.135 C 
ATOM     31  CG2 THR A   1      19.632  52.424   5.780  0.00  0.00    +0.034 C 
BRANCH  30  32
ATOM     32  OG1 THR A   1      18.088  52.118   7.576  0.00  0.00    -0.383 OA
ATOM     33  HG1 THR A   1      18.789  52.469   8.181  0.00  0.00    +0.210 HD
ENDBRANCH  30  32
ENDBRANCH  29  30
BRANCH  29  34
ATOM     34  N   THR A   1      17.043  51.855   4.627  0.00  0.00    -0.236 NA
ATOM     35  H   THR A   1      16.503  52.647   5.030  0.00  0.00    +0.142 HD
ENDBRANCH  29  34
ENDBRANCH  25  29
ENDBRANCH  24  27
BRANCH  24  36
ATOM     36  CB  LEU A   2      15.089  47.186   6.113  0.00  0.00    +0.029 C 
BRANCH  36  37
ATOM     37  CG  LEU A   2      14.314  47.994   5.033  0.00  0.00    +0.002 C 
ATOM     38  CD2 LEU A   2      12.960  48.364   5.594  0.00  0.00    +0.000 C 
ATOM     39  CD1 LEU A   2      14.100  47.192   3.759  0.00  0.00    +0.000 C 
ENDBRANCH  36  37
ENDBRANCH  24  36
ENDBRANCH   1  24
TORSDOF 19
REMARK  Name = ../refined-set-2016/1m0n/1m0n_pocket.pdb
REMARK  234 active torsions:
REMARK  status: ('A' for Active; 'I' for Inactive)
REMARK    1  A    between atoms: _1  and  _3
REMARK    2  A    between atoms: _3  and  _4
REMARK    3  A    between atoms: _3  and  _6
REMARK    4  A    between atoms: _6  and  _7
REMARK    5  A    between atoms: _10  and  _12
REMARK    6  A    between atoms: _12  and  _13
REMARK    7  A    between atoms: _12  and  _15
REMARK    8  A    between atoms: _15  and  _16
REMARK    9  A    between atoms: _18  and  _20
REMARK   10  A    between atoms: _20  and  _21
REMARK   11  A    between atoms: _23  and  _25
REMARK   12  A    between atoms: _25  and  _26
REMARK   13  A    between atoms: _25  and  _28
REMARK   14  A    between atoms: _28  and  _29
REMARK   15  A    between atoms: _29  and  _30
REMARK   16  A    between atoms: _35  and  _37
REMARK   17  A    between atoms: _37  and  _38
REMARK   18  A    between atoms: _37  and  _40
REMARK   19  A    between atoms: _40  and  _41
REMARK   20  A    between atoms: _41  and  _42
REMARK   21  A    between atoms: _44  and  _46
REMARK   22  A    between atoms: _46  and  _47
REMARK   23  A    between atoms: _46  and  _49
REMARK   24  A    between atoms: _49  and  _50
REMARK   25  A    between atoms: _52  and  _54
REMARK   26  A    between atoms: _54  and  _55
REMARK   27  A    between atoms: _54  and  _57
REMARK   28  A    between atoms: _57  and  _58
REMARK   29  A    between atoms: _60  and  _62
REMARK   30  A    between atoms: _62  and  _63
REMARK   31  A    between atoms: _62  and  _65
REMARK   32  A    between atoms: _65  and  _66
REMARK   33  A    between atoms: _69  and  _71
REMARK   34  A    between atoms: _71  and  _72
REMARK   35  A    between atoms: _74  and  _76
REMARK   36  A    between atoms: _76  and  _77
REMARK   37  A    between atoms: _80  and  _82
REMARK   38  A    between atoms: _82  and  _83
REMARK   39  A    between atoms: _82  and  _85
REMARK   40  A    between atoms: _85  and  _86
REMARK   41  A    between atoms: _86  and  _87
REMARK   42  A    between atoms: _90  and  _92
REMARK   43  A    between atoms: _92  and  _93
REMARK   44  A    between atoms: _92  and  _95
REMARK   45  A    between atoms: _95  and  _96
REMARK   46  A    between atoms: _98  and  _100
REMARK   47  A    between atoms: _100  and  _101
REMARK   48  A    between atoms: _100  and  _103
REMARK   49  A    between atoms: _103  and  _104
REMARK   50  A    between atoms: _109  and  _111
REMARK   51  A    between atoms: _111  and  _112
REMARK   52  A    between atoms: _111  and  _114
REMARK   53  A    between atoms: _114  and  _115
REMARK   54  A    between atoms: _115  and  _116
REMARK   55  A    between atoms: _119  and  _121
REMARK   56  A    between atoms: _121  and  _122
REMARK   57  A    between atoms: _121  and  _124
REMARK   58  A    between atoms: _124  and  _125
REMARK   59  A    between atoms: _127  and  _129
REMARK   60  A    between atoms: _129  and  _130
REMARK   61  A    between atoms: _129  and  _132
REMARK   62  A    between atoms: _132  and  _133
REMARK   63  A    between atoms: _143  and  _145
REMARK   64  A    between atoms: _145  and  _146
REMARK   65  A    between atoms: _145  and  _148
REMARK   66  A    between atoms: _148  and  _149
REMARK   67  A    between atoms: _154  and  _156
REMARK   68  A    between atoms: _156  and  _157
REMARK   69  A    between atoms: _159  and  _161
REMARK   70  A    between atoms: _161  and  _162
REMARK   71  A    between atoms: _161  and  _164
REMARK   72  A    between atoms: _164  and  _165
REMARK   73  A    between atoms: _165  and  _166
REMARK   74  A    between atoms: _168  and  _170
REMARK   75  A    between atoms: _170  and  _171
REMARK   76  A    between atoms: _170  and  _173
REMARK   77  A    between atoms: _173  and  _174
REMARK   78  A    between atoms: _177  and  _179
REMARK   79  A    between atoms: _179  and  _180
REMARK   80  A    between atoms: _183  and  _185
REMARK   81  A    between atoms: _185  and  _186
REMARK   82  A    between atoms: _185  and  _188
REMARK   83  A    between atoms: _188  and  _189
REMARK   84  A    between atoms: _192  and  _194
REMARK   85  A    between atoms: _194  and  _195
REMARK   86  A    between atoms: _194  and  _197
REMARK   87  A    between atoms: _197  and  _198
REMARK   88  A    between atoms: _200  and  _202
REMARK   89  A    between atoms: _202  and  _203
REMARK   90  A    between atoms: _202  and  _205
REMARK   91  A    between atoms: _205  and  _206
REMARK   92  A    between atoms: _209  and  _211
REMARK   93  A    between atoms: _211  and  _212
REMARK   94  A    between atoms: _215  and  _217
REMARK   95  A    between atoms: _217  and  _218
REMARK   96  A    between atoms: _217  and  _220
REMARK   97  A    between atoms: _220  and  _221
REMARK   98  A    between atoms: _221  and  _222
REMARK   99  A    between atoms: _226  and  _227
REMARK  100  A    between atoms: _232  and  _234
REMARK  101  A    between atoms: _234  and  _235
REMARK  102  A    between atoms: _234  and  _237
REMARK  103  A    between atoms: _237  and  _238
REMARK  104  A    between atoms: _241  and  _243
REMARK  105  A    between atoms: _243  and  _244
REMARK  106  A    between atoms: _243  and  _246
REMARK  107  A    between atoms: _246  and  _247
REMARK  108  A    between atoms: _250  and  _252
REMARK  109  A    between atoms: _252  and  _253
REMARK  110  A    between atoms: _252  and  _255
REMARK  111  A    between atoms: _255  and  _256
REMARK  112  A    between atoms: _258  and  _260
REMARK  113  A    between atoms: _260  and  _261
REMARK  114  A    between atoms: _260  and  _263
REMARK  115  A    between atoms: _263  and  _264
REMARK  116  A    between atoms: _266  and  _268
REMARK  117  A    between atoms: _268  and  _269
REMARK  118  A    between atoms: _271  and  _273
REMARK  119  A    between atoms: _273  and  _274
REMARK  120  A    between atoms: _276  and  _278
REMARK  121  A    between atoms: _278  and  _279
REMARK  122  A    between atoms: _278  and  _281
REMARK  123  A    between atoms: _281  and  _282
REMARK  124  A    between atoms: _285  and  _287
REMARK  125  A    between atoms: _287  and  _288
REMARK  126  A    between atoms: _287  and  _290
REMARK  127  A    between atoms: _290  and  _291
REMARK  128  A    between atoms: _291  and  _292
REMARK  129  A    between atoms: _295  and  _297
REMARK  130  A    between atoms: _297  and  _298
REMARK  131  A    between atoms: _301  and  _303
REMARK  132  A    between atoms: _303  and  _304
REMARK  133  A    between atoms: _303  and  _306
REMARK  134  A    between atoms: _306  and  _307
REMARK  135  A    between atoms: _307  and  _308
REMARK  136  A    between atoms: _313  and  _315
REMARK  137  A    between atoms: _315  and  _316
REMARK  138  A    between atoms: _315  and  _318
REMARK  139  A    between atoms: _318  and  _319
REMARK  140  A    between atoms: _322  and  _324
REMARK  141  A    between atoms: _324  and  _325
REMARK  142  A    between atoms: _327  and  _329
REMARK  143  A    between atoms: _329  and  _330
REMARK  144  A    between atoms: _329  and  _332
REMARK  145  A    between atoms: _332  and  _333
REMARK  146  A    between atoms: _336  and  _338
REMARK  147  A    between atoms: _338  and  _339
REMARK  148  A    between atoms: _338  and  _341
REMARK  149  A    between atoms: _341  and  _342
REMARK  150  A    between atoms: _345  and  _347
REMARK  151  A    between atoms: _347  and  _348
REMARK  152  A    between atoms: _347  and  _350
REMARK  153  A    between atoms: _350  and  _351
REMARK  154  A    between atoms: _353  and  _355
REMARK  155  A    between atoms: _355  and  _356
REMARK  156  A    between atoms: _355  and  _358
REMARK  157  A    between atoms: _358  and  _359
REMARK  158  A    between atoms: _359  and  _360
REMARK  159  A    between atoms: _360  and  _361
REMARK  160  A    between atoms: _361  and  _362
REMARK  161  A    between atoms: _367  and  _368
REMARK  162  A    between atoms: _373  and  _375
REMARK  163  A    between atoms: _375  and  _376
REMARK  164  A    between atoms: _375  and  _378
REMARK  165  A    between atoms: _378  and  _379
REMARK  166  A    between atoms: _382  and  _384
REMARK  167  A    between atoms: _384  and  _385
REMARK  168  A    between atoms: _388  and  _390
REMARK  169  A    between atoms: _390  and  _391
REMARK  170  A    between atoms: _390  and  _393
REMARK  171  A    between atoms: _393  and  _394
REMARK  172  A    between atoms: _399  and  _401
REMARK  173  A    between atoms: _401  and  _402
REMARK  174  A    between atoms: _401  and  _404
REMARK  175  A    between atoms: _407  and  _409
REMARK  176  A    between atoms: _409  and  _410
REMARK  177  A    between atoms: _409  and  _412
REMARK  178  A    between atoms: _412  and  _413
REMARK  179  A    between atoms: _413  and  _414
REMARK  180  A    between atoms: _414  and  _415
REMARK  181  A    between atoms: _424  and  _426
REMARK  182  A    between atoms: _426  and  _427
REMARK  183  A    between atoms: _426  and  _429
REMARK  184  A    between atoms: _429  and  _430
REMARK  185  A    between atoms: _435  and  _437
REMARK  186  A    between atoms: _437  and  _438
REMARK  187  A    between atoms: _437  and  _440
REMARK  188  A    between atoms: _440  and  _441
REMARK  189  A    between atoms: _447  and  _449
REMARK  190  A    between atoms: _449  and  _450
REMARK  191  A    between atoms: _449  and  _452
REMARK  192  A    between atoms: _452  and  _453
REMARK  193  A    between atoms: _455  and  _457
REMARK  194  A    between atoms: _457  and  _458
REMARK  195  A    between atoms: _457  and  _460
REMARK  196  A    between atoms: _460  and  _461
REMARK  197  A    between atoms: _461  and  _462
REMARK  198  A    between atoms: _465  and  _467
REMARK  199  A    between atoms: _467  and  _468
REMARK  200  A    between atoms: _467  and  _470
REMARK  201  A    between atoms: _470  and  _471
REMARK  202  A    between atoms: _473  and  _475
REMARK  203  A    between atoms: _475  and  _476
REMARK  204  A    between atoms: _475  and  _478
REMARK  205  A    between atoms: _478  and  _479
REMARK  206  A    between atoms: _479  and  _480
REMARK  207  A    between atoms: _483  and  _485
REMARK  208  A    between atoms: _485  and  _486
REMARK  209  A    between atoms: _485  and  _488
REMARK  210  A    between atoms: _488  and  _489
REMARK  211  A    between atoms: _492  and  _494
REMARK  212  A    between atoms: _494  and  _495
REMARK  213  A    between atoms: _494  and  _497
REMARK  214  A    between atoms: _497  and  _498
REMARK  215  A    between atoms: _504  and  _506
REMARK  216  A    between atoms: _506  and  _507
REMARK  217  A    between atoms: _506  and  _509
REMARK  218  A    between atoms: _509  and  _510
REMARK  219  A    between atoms: _515  and  _516
REMARK  220  A    between atoms: _518  and  _520
REMARK  221  A    between atoms: _520  and  _521
REMARK  222  A    between atoms: _520  and  _523
REMARK  223  A    between atoms: _523  and  _524
REMARK  224  A    between atoms: _527  and  _529
REMARK  225  A    between atoms: _529  and  _530
REMARK  226  A    between atoms: _529  and  _532
REMARK  227  A    between atoms: _532  and  _533
REMARK  228  A    between atoms: _536  and  _538
REMARK  229  A    between atoms: _538  and  _539
REMARK  230  A    between atoms: _538  and  _541
REMARK  231  A    between atoms: _541  and  _542
REMARK  232  A    between atoms: _547  and  _549
REMARK  233  A    between atoms: _549  and  _550
REMARK  234  A    between atoms: _549  and  _552
REMARK                            x       y       z     vdW  Elec       q    Type
REMARK                         _______ _______ _______ _____ _____    ______ ____
ROOT
ATOM      1  CA  LEU A   2      18.879  40.539   9.953  0.00  0.00    +0.149 C 
ENDROOT
BRANCH   1   4
ATOM      2  C   PRO A   1      19.507  39.584  12.099  0.00  0.00    +0.239 C 
ATOM      3  O   PRO A   1      20.419  38.872  11.590  0.00  0.00    -0.274 OA
ATOM      4  N   LEU A   2      18.732  40.373  11.371  0.00  0.00    -0.297 N 
ATOM      5  H   LEU A   2      17.976  40.901  11.853  0.00  0.00    +0.150 HD
BRANCH   2  10
ATOM      6  N   PRO A   1      18.163  38.680  14.175  0.00  0.00    -0.210 NA
ATOM      7  CD  PRO A   1      18.784  37.615  14.948  0.00  0.00    +0.089 C 
ATOM      8  CG  PRO A   1      20.248  37.915  14.854  0.00  0.00    +0.021 C 
ATOM      9  CB  PRO A   1      20.339  39.375  14.571  0.00  0.00    +0.028 C 
ATOM     10  CA  PRO A   1      19.164  39.640  13.680  0.00  0.00    +0.149 C 
ENDBRANCH   2  10
ENDBRANCH   1   4
BRANCH   1  11
ATOM     11  C   LEU A   2      18.541  41.986   9.580  0.00  0.00    +0.241 C 
ATOM     12  O   LEU A   2      17.493  42.538   9.979  0.00  0.00    -0.273 OA
ATOM     13  N   ALA A   3      19.396  42.593   8.801  0.00  0.00    -0.298 N 
ATOM     14  H   ALA A   3      20.279  42.123   8.518  0.00  0.00    +0.150 HD
BRANCH  13  15
ATOM     15  CA  ALA A   3      19.096  43.920   8.342  0.00  0.00    +0.137 C 
ATOM     16  CB  ALA A   3      19.821  44.945   9.174  0.00  0.00    +0.030 C 
BRANCH  15  17
ATOM     17  C   ALA A   3      19.411  44.070   6.807  0.00  0.00    +0.227 C 
ATOM     18  O   ALA A   3      19.888  43.152   6.132  0.00  0.00    -0.286 OA
ENDBRANCH  15  17
ENDBRANCH  13  15
ENDBRANCH   1  11
BRANCH   1  19
ATOM     19  CB  LEU A   2      17.925  39.594   9.201  0.00  0.00    +0.029 C 
BRANCH  19  20
ATOM     20  CG  LEU A   2      17.810  39.971   7.656  0.00  0.00    +0.002 C 
ATOM     21  CD2 LEU A   2      16.636  39.314   6.955  0.00  0.00    +0.000 C 
ATOM     22  CD1 LEU A   2      19.073  39.777   6.834  0.00  0.00    +0.000 C 
ENDBRANCH  19  20
ENDBRANCH   1  19
TORSDOF 7
REMARK  Name = ../refined-set-2016/1m0n/1m0n_pocket.pdb
REMARK  234 active torsions:
REMARK  status: ('A' for Active; 'I' for Inactive)
REMARK    1  A    between atoms: _1  and  _3
REMARK    2  A    between atoms: _3  and  _4
REMARK    3  A    between atoms: _3  and  _6
REMARK    4  A    between atoms: _6  and  _7
REMARK    5  A    between atoms: _10  and  _12
REMARK    6  A    between atoms: _12  and  _13
REMARK    7  A    between atoms: _12  and  _15
REMARK    8  A    between atoms: _15  and  _16
REMARK    9  A    between atoms: _18  and  _20
REMARK   10  A    between atoms: _20  and  _21
REMARK   11  A    between atoms: _23  and  _25
REMARK   12  A    between atoms: _25  and  _26
REMARK   13  A    between atoms: _25  and  _28
REMARK   14  A    between atoms: _28  and  _29
REMARK   15  A    between atoms: _29  and  _30
REMARK   16  A    between atoms: _35  and  _37
REMARK   17  A    between atoms: _37  and  _38
REMARK   18  A    between atoms: _37  and  _40
REMARK   19  A    between atoms: _40  and  _41
REMARK   20  A    between atoms: _41  and  _42
REMARK   21  A    between atoms: _44  and  _46
REMARK   22  A    between atoms: _46  and  _47
REMARK   23  A    between atoms: _46  and  _49
REMARK   24  A    between atoms: _49  and  _50
REMARK   25  A    between atoms: _52  and  _54
REMARK   26  A    between atoms: _54  and  _55
REMARK   27  A    between atoms: _54  and  _57
REMARK   28  A    between atoms: _57  and  _58
REMARK   29  A    between atoms: _60  and  _62
REMARK   30  A    between atoms: _62  and  _63
REMARK   31  A    between atoms: _62  and  _65
REMARK   32  A    between atoms: _65  and  _66
REMARK   33  A    between atoms: _69  and  _71
REMARK   34  A    between atoms: _71  and  _72
REMARK   35  A    between atoms: _74  and  _76
REMARK   36  A    between atoms: _76  and  _77
REMARK   37  A    between atoms: _80  and  _82
REMARK   38  A    between atoms: _82  and  _83
REMARK   39  A    between atoms: _82  and  _85
REMARK   40  A    between atoms: _85  and  _86
REMARK   41  A    between atoms: _86  and  _87
REMARK   42  A    between atoms: _90  and  _92
REMARK   43  A    between atoms: _92  and  _93
REMARK   44  A    between atoms: _92  and  _95
REMARK   45  A    between atoms: _95  and  _96
REMARK   46  A    between atoms: _98  and  _100
REMARK   47  A    between atoms: _100  and  _101
REMARK   48  A    between atoms: _100  and  _103
REMARK   49  A    between atoms: _103  and  _104
REMARK   50  A    between atoms: _109  and  _111
REMARK   51  A    between atoms: _111  and  _112
REMARK   52  A    between atoms: _111  and  _114
REMARK   53  A    between atoms: _114  and  _115
REMARK   54  A    between atoms: _115  and  _116
REMARK   55  A    between atoms: _119  and  _121
REMARK   56  A    between atoms: _121  and  _122
REMARK   57  A    between atoms: _121  and  _124
REMARK   58  A    between atoms: _124  and  _125
REMARK   59  A    between atoms: _127  and  _129
REMARK   60  A    between atoms: _129  and  _130
REMARK   61  A    between atoms: _129  and  _132
REMARK   62  A    between atoms: _132  and  _133
REMARK   63  A    between atoms: _143  and  _145
REMARK   64  A    between atoms: _145  and  _146
REMARK   65  A    between atoms: _145  and  _148
REMARK   66  A    between atoms: _148  and  _149
REMARK   67  A    between atoms: _154  and  _156
REMARK   68  A    between atoms: _156  and  _157
REMARK   69  A    between atoms: _159  and  _161
REMARK   70  A    between atoms: _161  and  _162
REMARK   71  A    between atoms: _161  and  _164
REMARK   72  A    between atoms: _164  and  _165
REMARK   73  A    between atoms: _165  and  _166
REMARK   74  A    between atoms: _168  and  _170
REMARK   75  A    between atoms: _170  and  _171
REMARK   76  A    between atoms: _170  and  _173
REMARK   77  A    between atoms: _173  and  _174
REMARK   78  A    between atoms: _177  and  _179
REMARK   79  A    between atoms: _179  and  _180
REMARK   80  A    between atoms: _183  and  _185
REMARK   81  A    between atoms: _185  and  _186
REMARK   82  A    between atoms: _185  and  _188
REMARK   83  A    between atoms: _188  and  _189
REMARK   84  A    between atoms: _192  and  _194
REMARK   85  A    between atoms: _194  and  _195
REMARK   86  A    between atoms: _194  and  _197
REMARK   87  A    between atoms: _197  and  _198
REMARK   88  A    between atoms: _200  and  _202
REMARK   89  A    between atoms: _202  and  _203
REMARK   90  A    between atoms: _202  and  _205
REMARK   91  A    between atoms: _205  and  _206
REMARK   92  A    between atoms: _209  and  _211
REMARK   93  A    between atoms: _211  and  _212
REMARK   94  A    between atoms: _215  and  _217
REMARK   95  A    between atoms: _217  and  _218
REMARK   96  A    between atoms: _217  and  _220
REMARK   97  A    between atoms: _220  and  _221
REMARK   98  A    between atoms: _221  and  _222
REMARK   99  A    between atoms: _226  and  _227
REMARK  100  A    between atoms: _232  and  _234
REMARK  101  A    between atoms: _234  and  _235
REMARK  102  A    between atoms: _234  and  _237
REMARK  103  A    between atoms: _237  and  _238
REMARK  104  A    between atoms: _241  and  _243
REMARK  105  A    between atoms: _243  and  _244
REMARK  106  A    between atoms: _243  and  _246
REMARK  107  A    between atoms: _246  and  _247
REMARK  108  A    between atoms: _250  and  _252
REMARK  109  A    between atoms: _252  and  _253
REMARK  110  A    between atoms: _252  and  _255
REMARK  111  A    between atoms: _255  and  _256
REMARK  112  A    between atoms: _258  and  _260
REMARK  113  A    between atoms: _260  and  _261
REMARK  114  A    between atoms: _260  and  _263
REMARK  115  A    between atoms: _263  and  _264
REMARK  116  A    between atoms: _266  and  _268
REMARK  117  A    between atoms: _268  and  _269
REMARK  118  A    between atoms: _271  and  _273
REMARK  119  A    between atoms: _273  and  _274
REMARK  120  A    between atoms: _276  and  _278
REMARK  121  A    between atoms: _278  and  _279
REMARK  122  A    between atoms: _278  and  _281
REMARK  123  A    between atoms: _281  and  _282
REMARK  124  A    between atoms: _285  and  _287
REMARK  125  A    between atoms: _287  and  _288
REMARK  126  A    between atoms: _287  and  _290
REMARK  127  A    between atoms: _290  and  _291
REMARK  128  A    between atoms: _291  and  _292
REMARK  129  A    between atoms: _295  and  _297
REMARK  130  A    between atoms: _297  and  _298
REMARK  131  A    between atoms: _301  and  _303
REMARK  132  A    between atoms: _303  and  _304
REMARK  133  A    between atoms: _303  and  _306
REMARK  134  A    between atoms: _306  and  _307
REMARK  135  A    between atoms: _307  and  _308
REMARK  136  A    between atoms: _313  and  _315
REMARK  137  A    between atoms: _315  and  _316
REMARK  138  A    between atoms: _315  and  _318
REMARK  139  A    between atoms: _318  and  _319
REMARK  140  A    between atoms: _322  and  _324
REMARK  141  A    between atoms: _324  and  _325
REMARK  142  A    between atoms: _327  and  _329
REMARK  143  A    between atoms: _329  and  _330
REMARK  144  A    between atoms: _329  and  _332
REMARK  145  A    between atoms: _332  and  _333
REMARK  146  A    between atoms: _336  and  _338
REMARK  147  A    between atoms: _338  and  _339
REMARK  148  A    between atoms: _338  and  _341
REMARK  149  A    between atoms: _341  and  _342
REMARK  150  A    between atoms: _345  and  _347
REMARK  151  A    between atoms: _347  and  _348
REMARK  152  A    between atoms: _347  and  _350
REMARK  153  A    between atoms: _350  and  _351
REMARK  154  A    between atoms: _353  and  _355
REMARK  155  A    between atoms: _355  and  _356
REMARK  156  A    between atoms: _355  and  _358
REMARK  157  A    between atoms: _358  and  _359
REMARK  158  A    between atoms: _359  and  _360
REMARK  159  A    between atoms: _360  and  _361
REMARK  160  A    between atoms: _361  and  _362
REMARK  161  A    between atoms: _367  and  _368
REMARK  162  A    between atoms: _373  and  _375
REMARK  163  A    between atoms: _375  and  _376
REMARK  164  A    between atoms: _375  and  _378
REMARK  165  A    between atoms: _378  and  _379
REMARK  166  A    between atoms: _382  and  _384
REMARK  167  A    between atoms: _384  and  _385
REMARK  168  A    between atoms: _388  and  _390
REMARK  169  A    between atoms: _390  and  _391
REMARK  170  A    between atoms: _390  and  _393
REMARK  171  A    between atoms: _393  and  _394
REMARK  172  A    between atoms: _399  and  _401
REMARK  173  A    between atoms: _401  and  _402
REMARK  174  A    between atoms: _401  and  _404
REMARK  175  A    between atoms: _407  and  _409
REMARK  176  A    between atoms: _409  and  _410
REMARK  177  A    between atoms: _409  and  _412
REMARK  178  A    between atoms: _412  and  _413
REMARK  179  A    between atoms: _413  and  _414
REMARK  180  A    between atoms: _414  and  _415
REMARK  181  A    between atoms: _424  and  _426
REMARK  182  A    between atoms: _426  and  _427
REMARK  183  A    between atoms: _426  and  _429
REMARK  184  A    between atoms: _429  and  _430
REMARK  185  A    between atoms: _435  and  _437
REMARK  186  A    between atoms: _437  and  _438
REMARK  187  A    between atoms: _437  and  _440
REMARK  188  A    between atoms: _440  and  _441
REMARK  189  A    between atoms: _447  and  _449
REMARK  190  A    between atoms: _449  and  _450
REMARK  191  A    between atoms: _449  and  _452
REMARK  192  A    between atoms: _452  and  _453
REMARK  193  A    between atoms: _455  and  _457
REMARK  194  A    between atoms: _457  and  _458
REMARK  195  A    between atoms: _457  and  _460
REMARK  196  A    between atoms: _460  and  _461
REMARK  197  A    between atoms: _461  and  _462
REMARK  198  A    between atoms: _465  and  _467
REMARK  199  A    between atoms: _467  and  _468
REMARK  200  A    between atoms: _467  and  _470
REMARK  201  A    between atoms: _470  and  _471
REMARK  202  A    between atoms: _473  and  _475
REMARK  203  A    between atoms: _475  and  _476
REMARK  204  A    between atoms: _475  and  _478
REMARK  205  A    between atoms: _478  and  _479
REMARK  206  A    between atoms: _479  and  _480
REMARK  207  A    between atoms: _483  and  _485
REMARK  208  A    between atoms: _485  and  _486
REMARK  209  A    between atoms: _485  and  _488
REMARK  210  A    between atoms: _488  and  _489
REMARK  211  A    between atoms: _492  and  _494
REMARK  212  A    between atoms: _494  and  _495
REMARK  213  A    between atoms: _494  and  _497
REMARK  214  A    between atoms: _497  and  _498
REMARK  215  A    between atoms: _504  and  _506
REMARK  216  A    between atoms: _506  and  _507
REMARK  217  A    between atoms: _506  and  _509
REMARK  218  A    between atoms: _509  and  _510
REMARK  219  A    between atoms: _515  and  _516
REMARK  220  A    between atoms: _518  and  _520
REMARK  221  A    between atoms: _520  and  _521
REMARK  222  A    between atoms: _520  and  _523
REMARK  223  A    between atoms: _523  and  _524
REMARK  224  A    between atoms: _527  and  _529
REMARK  225  A    between atoms: _529  and  _530
REMARK  226  A    between atoms: _529  and  _532
REMARK  227  A    between atoms: _532  and  _533
REMARK  228  A    between atoms: _536  and  _538
REMARK  229  A    between atoms: _538  and  _539
REMARK  230  A    between atoms: _538  and  _541
REMARK  231  A    between atoms: _541  and  _542
REMARK  232  A    between atoms: _547  and  _549
REMARK  233  A    between atoms: _549  and  _550
REMARK  234  A    between atoms: _549  and  _552
REMARK                            x       y       z     vdW  Elec       q    Type
REMARK                         _______ _______ _______ _____ _____    ______ ____
ROOT
ATOM      1  CB  ASN A   1       8.194  51.204  25.661  0.00  0.00    +0.110 C 
ENDROOT
BRANCH   1   2
ATOM      2  CG  ASN A   1       9.621  51.807  25.613  0.00  0.00    +0.221 C 
ATOM      3  ND2 ASN A   1      10.627  51.048  26.078  0.00  0.00    -0.329 N 
ATOM      4 HD21 ASN A   1      10.427  50.114  26.489  0.00  0.00    +0.145 HD
ATOM      5 HD22 ASN A   1      11.606  51.394  26.027  0.00  0.00    +0.145 HD
ATOM      6  OD1 ASN A   1       9.808  52.921  25.117  0.00  0.00    -0.275 OA
ENDBRANCH   1   2
BRANCH   1   7
ATOM      7  CA  ASN A   1       7.325  51.778  26.835  0.00  0.00    +0.142 C 
BRANCH   7   8
ATOM      8  N   ASN A   1       6.068  51.034  27.024  0.00  0.00    -0.239 NA
ATOM      9  H   ASN A   1       5.212  51.394  26.555  0.00  0.00    +0.142 HD
ENDBRANCH   7   8
BRANCH   7  10
ATOM     10  C   ASN A   1       7.041  53.223  26.624  0.00  0.00    +0.225 C 
ATOM     11  O   ASN A   1       6.268  53.658  25.730  0.00  0.00    -0.287 OA
ENDBRANCH   7  10
ENDBRANCH   1   7
TORSDOF 4
REMARK  Name = ../refined-set-2016/1m0n/1m0n_pocket.pdb
REMARK  234 active torsions:
REMARK  status: ('A' for Active; 'I' for Inactive)
REMARK    1  A    between atoms: _1  and  _3
REMARK    2  A    between atoms: _3  and  _4
REMARK    3  A    between atoms: _3  and  _6
REMARK    4  A    between atoms: _6  and  _7
REMARK    5  A    between atoms: _10  and  _12
REMARK    6  A    between atoms: _12  and  _13
REMARK    7  A    between atoms: _12  and  _15
REMARK    8  A    between atoms: _15  and  _16
REMARK    9  A    between atoms: _18  and  _20
REMARK   10  A    between atoms: _20  and  _21
REMARK   11  A    between atoms: _23  and  _25
REMARK   12  A    between atoms: _25  and  _26
REMARK   13  A    between atoms: _25  and  _28
REMARK   14  A    between atoms: _28  and  _29
REMARK   15  A    between atoms: _29  and  _30
REMARK   16  A    between atoms: _35  and  _37
REMARK   17  A    between atoms: _37  and  _38
REMARK   18  A    between atoms: _37  and  _40
REMARK   19  A    between atoms: _40  and  _41
REMARK   20  A    between atoms: _41  and  _42
REMARK   21  A    between atoms: _44  and  _46
REMARK   22  A    between atoms: _46  and  _47
REMARK   23  A    between atoms: _46  and  _49
REMARK   24  A    between atoms: _49  and  _50
REMARK   25  A    between atoms: _52  and  _54
REMARK   26  A    between atoms: _54  and  _55
REMARK   27  A    between atoms: _54  and  _57
REMARK   28  A    between atoms: _57  and  _58
REMARK   29  A    between atoms: _60  and  _62
REMARK   30  A    between atoms: _62  and  _63
REMARK   31  A    between atoms: _62  and  _65
REMARK   32  A    between atoms: _65  and  _66
REMARK   33  A    between atoms: _69  and  _71
REMARK   34  A    between atoms: _71  and  _72
REMARK   35  A    between atoms: _74  and  _76
REMARK   36  A    between atoms: _76  and  _77
REMARK   37  A    between atoms: _80  and  _82
REMARK   38  A    between atoms: _82  and  _83
REMARK   39  A    between atoms: _82  and  _85
REMARK   40  A    between atoms: _85  and  _86
REMARK   41  A    between atoms: _86  and  _87
REMARK   42  A    between atoms: _90  and  _92
REMARK   43  A    between atoms: _92  and  _93
REMARK   44  A    between atoms: _92  and  _95
REMARK   45  A    between atoms: _95  and  _96
REMARK   46  A    between atoms: _98  and  _100
REMARK   47  A    between atoms: _100  and  _101
REMARK   48  A    between atoms: _100  and  _103
REMARK   49  A    between atoms: _103  and  _104
REMARK   50  A    between atoms: _109  and  _111
REMARK   51  A    between atoms: _111  and  _112
REMARK   52  A    between atoms: _111  and  _114
REMARK   53  A    between atoms: _114  and  _115
REMARK   54  A    between atoms: _115  and  _116
REMARK   55  A    between atoms: _119  and  _121
REMARK   56  A    between atoms: _121  and  _122
REMARK   57  A    between atoms: _121  and  _124
REMARK   58  A    between atoms: _124  and  _125
REMARK   59  A    between atoms: _127  and  _129
REMARK   60  A    between atoms: _129  and  _130
REMARK   61  A    between atoms: _129  and  _132
REMARK   62  A    between atoms: _132  and  _133
REMARK   63  A    between atoms: _143  and  _145
REMARK   64  A    between atoms: _145  and  _146
REMARK   65  A    between atoms: _145  and  _148
REMARK   66  A    between atoms: _148  and  _149
REMARK   67  A    between atoms: _154  and  _156
REMARK   68  A    between atoms: _156  and  _157
REMARK   69  A    between atoms: _159  and  _161
REMARK   70  A    between atoms: _161  and  _162
REMARK   71  A    between atoms: _161  and  _164
REMARK   72  A    between atoms: _164  and  _165
REMARK   73  A    between atoms: _165  and  _166
REMARK   74  A    between atoms: _168  and  _170
REMARK   75  A    between atoms: _170  and  _171
REMARK   76  A    between atoms: _170  and  _173
REMARK   77  A    between atoms: _173  and  _174
REMARK   78  A    between atoms: _177  and  _179
REMARK   79  A    between atoms: _179  and  _180
REMARK   80  A    between atoms: _183  and  _185
REMARK   81  A    between atoms: _185  and  _186
REMARK   82  A    between atoms: _185  and  _188
REMARK   83  A    between atoms: _188  and  _189
REMARK   84  A    between atoms: _192  and  _194
REMARK   85  A    between atoms: _194  and  _195
REMARK   86  A    between atoms: _194  and  _197
REMARK   87  A    between atoms: _197  and  _198
REMARK   88  A    between atoms: _200  and  _202
REMARK   89  A    between atoms: _202  and  _203
REMARK   90  A    between atoms: _202  and  _205
REMARK   91  A    between atoms: _205  and  _206
REMARK   92  A    between atoms: _209  and  _211
REMARK   93  A    between atoms: _211  and  _212
REMARK   94  A    between atoms: _215  and  _217
REMARK   95  A    between atoms: _217  and  _218
REMARK   96  A    between atoms: _217  and  _220
REMARK   97  A    between atoms: _220  and  _221
REMARK   98  A    between atoms: _221  and  _222
REMARK   99  A    between atoms: _226  and  _227
REMARK  100  A    between atoms: _232  and  _234
REMARK  101  A    between atoms: _234  and  _235
REMARK  102  A    between atoms: _234  and  _237
REMARK  103  A    between atoms: _237  and  _238
REMARK  104  A    between atoms: _241  and  _243
REMARK  105  A    between atoms: _243  and  _244
REMARK  106  A    between atoms: _243  and  _246
REMARK  107  A    between atoms: _246  and  _247
REMARK  108  A    between atoms: _250  and  _252
REMARK  109  A    between atoms: _252  and  _253
REMARK  110  A    between atoms: _252  and  _255
REMARK  111  A    between atoms: _255  and  _256
REMARK  112  A    between atoms: _258  and  _260
REMARK  113  A    between atoms: _260  and  _261
REMARK  114  A    between atoms: _260  and  _263
REMARK  115  A    between atoms: _263  and  _264
REMARK  116  A    between atoms: _266  and  _268
REMARK  117  A    between atoms: _268  and  _269
REMARK  118  A    between atoms: _271  and  _273
REMARK  119  A    between atoms: _273  and  _274
REMARK  120  A    between atoms: _276  and  _278
REMARK  121  A    between atoms: _278  and  _279
REMARK  122  A    between atoms: _278  and  _281
REMARK  123  A    between atoms: _281  and  _282
REMARK  124  A    between atoms: _285  and  _287
REMARK  125  A    between atoms: _287  and  _288
REMARK  126  A    between atoms: _287  and  _290
REMARK  127  A    between atoms: _290  and  _291
REMARK  128  A    between atoms: _291  and  _292
REMARK  129  A    between atoms: _295  and  _297
REMARK  130  A    between atoms: _297  and  _298
REMARK  131  A    between atoms: _301  and  _303
REMARK  132  A    between atoms: _303  and  _304
REMARK  133  A    between atoms: _303  and  _306
REMARK  134  A    between atoms: _306  and  _307
REMARK  135  A    between atoms: _307  and  _308
REMARK  136  A    between atoms: _313  and  _315
REMARK  137  A    between atoms: _315  and  _316
REMARK  138  A    between atoms: _315  and  _318
REMARK  139  A    between atoms: _318  and  _319
REMARK  140  A    between atoms: _322  and  _324
REMARK  141  A    between atoms: _324  and  _325
REMARK  142  A    between atoms: _327  and  _329
REMARK  143  A    between atoms: _329  and  _330
REMARK  144  A    between atoms: _329  and  _332
REMARK  145  A    between atoms: _332  and  _333
REMARK  146  A    between atoms: _336  and  _338
REMARK  147  A    between atoms: _338  and  _339
REMARK  148  A    between atoms: _338  and  _341
REMARK  149  A    between atoms: _341  and  _342
REMARK  150  A    between atoms: _345  and  _347
REMARK  151  A    between atoms: _347  and  _348
REMARK  152  A    between atoms: _347  and  _350
REMARK  153  A    between atoms: _350  and  _351
REMARK  154  A    between atoms: _353  and  _355
REMARK  155  A    between atoms: _355  and  _356
REMARK  156  A    between atoms: _355  and  _358
REMARK  157  A    between atoms: _358  and  _359
REMARK  158  A    between atoms: _359  and  _360
REMARK  159  A    between atoms: _360  and  _361
REMARK  160  A    between atoms: _361  and  _362
REMARK  161  A    between atoms: _367  and  _368
REMARK  162  A    between atoms: _373  and  _375
REMARK  163  A    between atoms: _375  and  _376
REMARK  164  A    between atoms: _375  and  _378
REMARK  165  A    between atoms: _378  and  _379
REMARK  166  A    between atoms: _382  and  _384
REMARK  167  A    between atoms: _384  and  _385
REMARK  168  A    between atoms: _388  and  _390
REMARK  169  A    between atoms: _390  and  _391
REMARK  170  A    between atoms: _390  and  _393
REMARK  171  A    between atoms: _393  and  _394
REMARK  172  A    between atoms: _399  and  _401
REMARK  173  A    between atoms: _401  and  _402
REMARK  174  A    between atoms: _401  and  _404
REMARK  175  A    between atoms: _407  and  _409
REMARK  176  A    between atoms: _409  and  _410
REMARK  177  A    between atoms: _409  and  _412
REMARK  178  A    between atoms: _412  and  _413
REMARK  179  A    between atoms: _413  and  _414
REMARK  180  A    between atoms: _414  and  _415
REMARK  181  A    between atoms: _424  and  _426
REMARK  182  A    between atoms: _426  and  _427
REMARK  183  A    between atoms: _426  and  _429
REMARK  184  A    between atoms: _429  and  _430
REMARK  185  A    between atoms: _435  and  _437
REMARK  186  A    between atoms: _437  and  _438
REMARK  187  A    between atoms: _437  and  _440
REMARK  188  A    between atoms: _440  and  _441
REMARK  189  A    between atoms: _447  and  _449
REMARK  190  A    between atoms: _449  and  _450
REMARK  191  A    between atoms: _449  and  _452
REMARK  192  A    between atoms: _452  and  _453
REMARK  193  A    between atoms: _455  and  _457
REMARK  194  A    between atoms: _457  and  _458
REMARK  195  A    between atoms: _457  and  _460
REMARK  196  A    between atoms: _460  and  _461
REMARK  197  A    between atoms: _461  and  _462
REMARK  198  A    between atoms: _465  and  _467
REMARK  199  A    between atoms: _467  and  _468
REMARK  200  A    between atoms: _467  and  _470
REMARK  201  A    between atoms: _470  and  _471
REMARK  202  A    between atoms: _473  and  _475
REMARK  203  A    between atoms: _475  and  _476
REMARK  204  A    between atoms: _475  and  _478
REMARK  205  A    between atoms: _478  and  _479
REMARK  206  A    between atoms: _479  and  _480
REMARK  207  A    between atoms: _483  and  _485
REMARK  208  A    between atoms: _485  and  _486
REMARK  209  A    between atoms: _485  and  _488
REMARK  210  A    between atoms: _488  and  _489
REMARK  211  A    between atoms: _492  and  _494
REMARK  212  A    between atoms: _494  and  _495
REMARK  213  A    between atoms: _494  and  _497
REMARK  214  A    between atoms: _497  and  _498
REMARK  215  A    between atoms: _504  and  _506
REMARK  216  A    between atoms: _506  and  _507
REMARK  217  A    between atoms: _506  and  _509
REMARK  218  A    between atoms: _509  and  _510
REMARK  219  A    between atoms: _515  and  _516
REMARK  220  A    between atoms: _518  and  _520
REMARK  221  A    between atoms: _520  and  _521
REMARK  222  A    between atoms: _520  and  _523
REMARK  223  A    between atoms: _523  and  _524
REMARK  224  A    between atoms: _527  and  _529
REMARK  225  A    between atoms: _529  and  _530
REMARK  226  A    between atoms: _529  and  _532
REMARK  227  A    between atoms: _532  and  _533
REMARK  228  A    between atoms: _536  and  _538
REMARK  229  A    between atoms: _538  and  _539
REMARK  230  A    between atoms: _538  and  _541
REMARK  231  A    between atoms: _541  and  _542
REMARK  232  A    between atoms: _547  and  _549
REMARK  233  A    between atoms: _549  and  _550
REMARK  234  A    between atoms: _549  and  _552
REMARK                            x       y       z     vdW  Elec       q    Type
REMARK                         _______ _______ _______ _____ _____    ______ ____
ROOT
ATOM      1  CA  VAL A   1      10.326  57.689  26.149  0.00  0.00    +0.133 C 
ENDROOT
BRANCH   1   2
ATOM      2  CB  VAL A   1      10.745  57.609  24.625  0.00  0.00    +0.023 C 
ATOM      3  CG2 VAL A   1      10.745  56.121  24.120  0.00  0.00    +0.002 C 
ATOM      4  CG1 VAL A   1       9.866  58.583  23.727  0.00  0.00    +0.002 C 
ENDBRANCH   1   2
BRANCH   1   5
ATOM      5  N   VAL A   1       9.051  57.081  26.425  0.00  0.00    -0.239 NA
ATOM      6  H   VAL A   1       8.187  57.465  25.993  0.00  0.00    +0.142 HD
ENDBRANCH   1   5
BRANCH   1   7
ATOM      7  C   VAL A   1      10.188  59.105  26.510  0.00  0.00    +0.224 C 
ATOM      8  O   VAL A   1       9.140  59.736  26.308  0.00  0.00    -0.287 OA
ENDBRANCH   1   7
TORSDOF 3
REMARK  Name = ../refined-set-2016/1m0n/1m0n_pocket.pdb
REMARK  234 active torsions:
REMARK  status: ('A' for Active; 'I' for Inactive)
REMARK    1  A    between atoms: _1  and  _3
REMARK    2  A    between atoms: _3  and  _4
REMARK    3  A    between atoms: _3  and  _6
REMARK    4  A    between atoms: _6  and  _7
REMARK    5  A    between atoms: _10  and  _12
REMARK    6  A    between atoms: _12  and  _13
REMARK    7  A    between atoms: _12  and  _15
REMARK    8  A    between atoms: _15  and  _16
REMARK    9  A    between atoms: _18  and  _20
REMARK   10  A    between atoms: _20  and  _21
REMARK   11  A    between atoms: _23  and  _25
REMARK   12  A    between atoms: _25  and  _26
REMARK   13  A    between atoms: _25  and  _28
REMARK   14  A    between atoms: _28  and  _29
REMARK   15  A    between atoms: _29  and  _30
REMARK   16  A    between atoms: _35  and  _37
REMARK   17  A    between atoms: _37  and  _38
REMARK   18  A    between atoms: _37  and  _40
REMARK   19  A    between atoms: _40  and  _41
REMARK   20  A    between atoms: _41  and  _42
REMARK   21  A    between atoms: _44  and  _46
REMARK   22  A    between atoms: _46  and  _47
REMARK   23  A    between atoms: _46  and  _49
REMARK   24  A    between atoms: _49  and  _50
REMARK   25  A    between atoms: _52  and  _54
REMARK   26  A    between atoms: _54  and  _55
REMARK   27  A    between atoms: _54  and  _57
REMARK   28  A    between atoms: _57  and  _58
REMARK   29  A    between atoms: _60  and  _62
REMARK   30  A    between atoms: _62  and  _63
REMARK   31  A    between atoms: _62  and  _65
REMARK   32  A    between atoms: _65  and  _66
REMARK   33  A    between atoms: _69  and  _71
REMARK   34  A    between atoms: _71  and  _72
REMARK   35  A    between atoms: _74  and  _76
REMARK   36  A    between atoms: _76  and  _77
REMARK   37  A    between atoms: _80  and  _82
REMARK   38  A    between atoms: _82  and  _83
REMARK   39  A    between atoms: _82  and  _85
REMARK   40  A    between atoms: _85  and  _86
REMARK   41  A    between atoms: _86  and  _87
REMARK   42  A    between atoms: _90  and  _92
REMARK   43  A    between atoms: _92  and  _93
REMARK   44  A    between atoms: _92  and  _95
REMARK   45  A    between atoms: _95  and  _96
REMARK   46  A    between atoms: _98  and  _100
REMARK   47  A    between atoms: _100  and  _101
REMARK   48  A    between atoms: _100  and  _103
REMARK   49  A    between atoms: _103  and  _104
REMARK   50  A    between atoms: _109  and  _111
REMARK   51  A    between atoms: _111  and  _112
REMARK   52  A    between atoms: _111  and  _114
REMARK   53  A    between atoms: _114  and  _115
REMARK   54  A    between atoms: _115  and  _116
REMARK   55  A    between atoms: _119  and  _121
REMARK   56  A    between atoms: _121  and  _122
REMARK   57  A    between atoms: _121  and  _124
REMARK   58  A    between atoms: _124  and  _125
REMARK   59  A    between atoms: _127  and  _129
REMARK   60  A    between atoms: _129  and  _130
REMARK   61  A    between atoms: _129  and  _132
REMARK   62  A    between atoms: _132  and  _133
REMARK   63  A    between atoms: _143  and  _145
REMARK   64  A    between atoms: _145  and  _146
REMARK   65  A    between atoms: _145  and  _148
REMARK   66  A    between atoms: _148  and  _149
REMARK   67  A    between atoms: _154  and  _156
REMARK   68  A    between atoms: _156  and  _157
REMARK   69  A    between atoms: _159  and  _161
REMARK   70  A    between atoms: _161  and  _162
REMARK   71  A    between atoms: _161  and  _164
REMARK   72  A    between atoms: _164  and  _165
REMARK   73  A    between atoms: _165  and  _166
REMARK   74  A    between atoms: _168  and  _170
REMARK   75  A    between atoms: _170  and  _171
REMARK   76  A    between atoms: _170  and  _173
REMARK   77  A    between atoms: _173  and  _174
REMARK   78  A    between atoms: _177  and  _179
REMARK   79  A    between atoms: _179  and  _180
REMARK   80  A    between atoms: _183  and  _185
REMARK   81  A    between atoms: _185  and  _186
REMARK   82  A    between atoms: _185  and  _188
REMARK   83  A    between atoms: _188  and  _189
REMARK   84  A    between atoms: _192  and  _194
REMARK   85  A    between atoms: _194  and  _195
REMARK   86  A    between atoms: _194  and  _197
REMARK   87  A    between atoms: _197  and  _198
REMARK   88  A    between atoms: _200  and  _202
REMARK   89  A    between atoms: _202  and  _203
REMARK   90  A    between atoms: _202  and  _205
REMARK   91  A    between atoms: _205  and  _206
REMARK   92  A    between atoms: _209  and  _211
REMARK   93  A    between atoms: _211  and  _212
REMARK   94  A    between atoms: _215  and  _217
REMARK   95  A    between atoms: _217  and  _218
REMARK   96  A    between atoms: _217  and  _220
REMARK   97  A    between atoms: _220  and  _221
REMARK   98  A    between atoms: _221  and  _222
REMARK   99  A    between atoms: _226  and  _227
REMARK  100  A    between atoms: _232  and  _234
REMARK  101  A    between atoms: _234  and  _235
REMARK  102  A    between atoms: _234  and  _237
REMARK  103  A    between atoms: _237  and  _238
REMARK  104  A    between atoms: _241  and  _243
REMARK  105  A    between atoms: _243  and  _244
REMARK  106  A    between atoms: _243  and  _246
REMARK  107  A    between atoms: _246  and  _247
REMARK  108  A    between atoms: _250  and  _252
REMARK  109  A    between atoms: _252  and  _253
REMARK  110  A    between atoms: _252  and  _255
REMARK  111  A    between atoms: _255  and  _256
REMARK  112  A    between atoms: _258  and  _260
REMARK  113  A    between atoms: _260  and  _261
REMARK  114  A    between atoms: _260  and  _263
REMARK  115  A    between atoms: _263  and  _264
REMARK  116  A    between atoms: _266  and  _268
REMARK  117  A    between atoms: _268  and  _269
REMARK  118  A    between atoms: _271  and  _273
REMARK  119  A    between atoms: _273  and  _274
REMARK  120  A    between atoms: _276  and  _278
REMARK  121  A    between atoms: _278  and  _279
REMARK  122  A    between atoms: _278  and  _281
REMARK  123  A    between atoms: _281  and  _282
REMARK  124  A    between atoms: _285  and  _287
REMARK  125  A    between atoms: _287  and  _288
REMARK  126  A    between atoms: _287  and  _290
REMARK  127  A    between atoms: _290  and  _291
REMARK  128  A    between atoms: _291  and  _292
REMARK  129  A    between atoms: _295  and  _297
REMARK  130  A    between atoms: _297  and  _298
REMARK  131  A    between atoms: _301  and  _303
REMARK  132  A    between atoms: _303  and  _304
REMARK  133  A    between atoms: _303  and  _306
REMARK  134  A    between atoms: _306  and  _307
REMARK  135  A    between atoms: _307  and  _308
REMARK  136  A    between atoms: _313  and  _315
REMARK  137  A    between atoms: _315  and  _316
REMARK  138  A    between atoms: _315  and  _318
REMARK  139  A    between atoms: _318  and  _319
REMARK  140  A    between atoms: _322  and  _324
REMARK  141  A    between atoms: _324  and  _325
REMARK  142  A    between atoms: _327  and  _329
REMARK  143  A    between atoms: _329  and  _330
REMARK  144  A    between atoms: _329  and  _332
REMARK  145  A    between atoms: _332  and  _333
REMARK  146  A    between atoms: _336  and  _338
REMARK  147  A    between atoms: _338  and  _339
REMARK  148  A    between atoms: _338  and  _341
REMARK  149  A    between atoms: _341  and  _342
REMARK  150  A    between atoms: _345  and  _347
REMARK  151  A    between atoms: _347  and  _348
REMARK  152  A    between atoms: _347  and  _350
REMARK  153  A    between atoms: _350  and  _351
REMARK  154  A    between atoms: _353  and  _355
REMARK  155  A    between atoms: _355  and  _356
REMARK  156  A    between atoms: _355  and  _358
REMARK  157  A    between atoms: _358  and  _359
REMARK  158  A    between atoms: _359  and  _360
REMARK  159  A    between atoms: _360  and  _361
REMARK  160  A    between atoms: _361  and  _362
REMARK  161  A    between atoms: _367  and  _368
REMARK  162  A    between atoms: _373  and  _375
REMARK  163  A    between atoms: _375  and  _376
REMARK  164  A    between atoms: _375  and  _378
REMARK  165  A    between atoms: _378  and  _379
REMARK  166  A    between atoms: _382  and  _384
REMARK  167  A    between atoms: _384  and  _385
REMARK  168  A    between atoms: _388  and  _390
REMARK  169  A    between atoms: _390  and  _391
REMARK  170  A    between atoms: _390  and  _393
REMARK  171  A    between atoms: _393  and  _394
REMARK  172  A    between atoms: _399  and  _401
REMARK  173  A    between atoms: _401  and  _402
REMARK  174  A    between atoms: _401  and  _404
REMARK  175  A    between atoms: _407  and  _409
REMARK  176  A    between atoms: _409  and  _410
REMARK  177  A    between atoms: _409  and  _412
REMARK  178  A    between atoms: _412  and  _413
REMARK  179  A    between atoms: _413  and  _414
REMARK  180  A    between atoms: _414  and  _415
REMARK  181  A    between atoms: _424  and  _426
REMARK  182  A    between atoms: _426  and  _427
REMARK  183  A    between atoms: _426  and  _429
REMARK  184  A    between atoms: _429  and  _430
REMARK  185  A    between atoms: _435  and  _437
REMARK  186  A    between atoms: _437  and  _438
REMARK  187  A    between atoms: _437  and  _440
REMARK  188  A    between atoms: _440  and  _441
REMARK  189  A    between atoms: _447  and  _449
REMARK  190  A    between atoms: _449  and  _450
REMARK  191  A    between atoms: _449  and  _452
REMARK  192  A    between atoms: _452  and  _453
REMARK  193  A    between atoms: _455  and  _457
REMARK  194  A    between atoms: _457  and  _458
REMARK  195  A    between atoms: _457  and  _460
REMARK  196  A    between atoms: _460  and  _461
REMARK  197  A    between atoms: _461  and  _462
REMARK  198  A    between atoms: _465  and  _467
REMARK  199  A    between atoms: _467  and  _468
REMARK  200  A    between atoms: _467  and  _470
REMARK  201  A    between atoms: _470  and  _471
REMARK  202  A    between atoms: _473  and  _475
REMARK  203  A    between atoms: _475  and  _476
REMARK  204  A    between atoms: _475  and  _478
REMARK  205  A    between atoms: _478  and  _479
REMARK  206  A    between atoms: _479  and  _480
REMARK  207  A    between atoms: _483  and  _485
REMARK  208  A    between atoms: _485  and  _486
REMARK  209  A    between atoms: _485  and  _488
REMARK  210  A    between atoms: _488  and  _489
REMARK  211  A    between atoms: _492  and  _494
REMARK  212  A    between atoms: _494  and  _495
REMARK  213  A    between atoms: _494  and  _497
REMARK  214  A    between atoms: _497  and  _498
REMARK  215  A    between atoms: _504  and  _506
REMARK  216  A    between atoms: _506  and  _507
REMARK  217  A    between atoms: _506  and  _509
REMARK  218  A    between atoms: _509  and  _510
REMARK  219  A    between atoms: _515  and  _516
REMARK  220  A    between atoms: _518  and  _520
REMARK  221  A    between atoms: _520  and  _521
REMARK  222  A    between atoms: _520  and  _523
REMARK  223  A    between atoms: _523  and  _524
REMARK  224  A    between atoms: _527  and  _529
REMARK  225  A    between atoms: _529  and  _530
REMARK  226  A    between atoms: _529  and  _532
REMARK  227  A    between atoms: _532  and  _533
REMARK  228  A    between atoms: _536  and  _538
REMARK  229  A    between atoms: _538  and  _539
REMARK  230  A    between atoms: _538  and  _541
REMARK  231  A    between atoms: _541  and  _542
REMARK  232  A    between atoms: _547  and  _549
REMARK  233  A    between atoms: _549  and  _550
REMARK  234  A    between atoms: _549  and  _552
REMARK                            x       y       z     vdW  Elec       q    Type
REMARK                         _______ _______ _______ _____ _____    ______ ____
ROOT
ATOM      1  NE  ARG A   1       9.767  54.015  22.120  0.00  0.00    -0.265 N 
ATOM      2  HE  ARG A   1       9.471  53.669  23.055  0.00  0.00    +0.259 HD
ATOM      3  CZ  ARG A   1      10.780  53.388  21.515  0.00  0.00    +0.342 C 
ATOM      4  NH2 ARG A   1      11.450  52.415  22.116  0.00  0.00    -0.292 N 
ATOM      5 HH21 ARG A   1      11.191  52.124  23.080  0.00  0.00    +0.255 HD
ATOM      6 HH22 ARG A   1      12.235  51.943  21.623  0.00  0.00    +0.255 HD
ATOM      7  NH1 ARG A   1      11.143  53.743  20.315  0.00  0.00    -0.292 N 
ATOM      8 HH11 ARG A   1      11.932  53.255  19.844  0.00  0.00    +0.255 HD
ATOM      9 HH12 ARG A   1      10.644  54.515  19.828  0.00  0.00    +0.255 HD
ENDROOT
BRANCH   1  10
ATOM     10  CD  ARG A   1       9.044  55.161  21.551  0.00  0.00    +0.174 C 
BRANCH  10  11
ATOM     11  CG  ARG A   1       7.600  55.236  21.974  0.00  0.00    +0.045 C 
BRANCH  11  12
ATOM     12  CB  ARG A   1       6.783  53.844  21.881  0.00  0.00    +0.029 C 
BRANCH  12  13
ATOM     13  CA  ARG A   1       5.214  54.009  22.189  0.00  0.00    +0.133 C 
BRANCH  13  14
ATOM     14  N   ARG A   1       4.965  54.507  23.555  0.00  0.00    -0.239 NA
ATOM     15  H   ARG A   1       5.428  54.013  24.344  0.00  0.00    +0.142 HD
ENDBRANCH  13  14
BRANCH  13  16
ATOM     16  C   ARG A   1       4.434  52.698  22.070  0.00  0.00    +0.224 C 
ATOM     17  O   ARG A   1       4.796  51.694  22.609  0.00  0.00    -0.287 OA
ENDBRANCH  13  16
ENDBRANCH  12  13
ENDBRANCH  11  12
ENDBRANCH  10  11
ENDBRANCH   1  10
TORSDOF 6
REMARK  Name = ../refined-set-2016/1m0n/1m0n_pocket.pdb
REMARK  234 active torsions:
REMARK  status: ('A' for Active; 'I' for Inactive)
REMARK    1  A    between atoms: _1  and  _3
REMARK    2  A    between atoms: _3  and  _4
REMARK    3  A    between atoms: _3  and  _6
REMARK    4  A    between atoms: _6  and  _7
REMARK    5  A    between atoms: _10  and  _12
REMARK    6  A    between atoms: _12  and  _13
REMARK    7  A    between atoms: _12  and  _15
REMARK    8  A    between atoms: _15  and  _16
REMARK    9  A    between atoms: _18  and  _20
REMARK   10  A    between atoms: _20  and  _21
REMARK   11  A    between atoms: _23  and  _25
REMARK   12  A    between atoms: _25  and  _26
REMARK   13  A    between atoms: _25  and  _28
REMARK   14  A    between atoms: _28  and  _29
REMARK   15  A    between atoms: _29  and  _30
REMARK   16  A    between atoms: _35  and  _37
REMARK   17  A    between atoms: _37  and  _38
REMARK   18  A    between atoms: _37  and  _40
REMARK   19  A    between atoms: _40  and  _41
REMARK   20  A    between atoms: _41  and  _42
REMARK   21  A    between atoms: _44  and  _46
REMARK   22  A    between atoms: _46  and  _47
REMARK   23  A    between atoms: _46  and  _49
REMARK   24  A    between atoms: _49  and  _50
REMARK   25  A    between atoms: _52  and  _54
REMARK   26  A    between atoms: _54  and  _55
REMARK   27  A    between atoms: _54  and  _57
REMARK   28  A    between atoms: _57  and  _58
REMARK   29  A    between atoms: _60  and  _62
REMARK   30  A    between atoms: _62  and  _63
REMARK   31  A    between atoms: _62  and  _65
REMARK   32  A    between atoms: _65  and  _66
REMARK   33  A    between atoms: _69  and  _71
REMARK   34  A    between atoms: _71  and  _72
REMARK   35  A    between atoms: _74  and  _76
REMARK   36  A    between atoms: _76  and  _77
REMARK   37  A    between atoms: _80  and  _82
REMARK   38  A    between atoms: _82  and  _83
REMARK   39  A    between atoms: _82  and  _85
REMARK   40  A    between atoms: _85  and  _86
REMARK   41  A    between atoms: _86  and  _87
REMARK   42  A    between atoms: _90  and  _92
REMARK   43  A    between atoms: _92  and  _93
REMARK   44  A    between atoms: _92  and  _95
REMARK   45  A    between atoms: _95  and  _96
REMARK   46  A    between atoms: _98  and  _100
REMARK   47  A    between atoms: _100  and  _101
REMARK   48  A    between atoms: _100  and  _103
REMARK   49  A    between atoms: _103  and  _104
REMARK   50  A    between atoms: _109  and  _111
REMARK   51  A    between atoms: _111  and  _112
REMARK   52  A    between atoms: _111  and  _114
REMARK   53  A    between atoms: _114  and  _115
REMARK   54  A    between atoms: _115  and  _116
REMARK   55  A    between atoms: _119  and  _121
REMARK   56  A    between atoms: _121  and  _122
REMARK   57  A    between atoms: _121  and  _124
REMARK   58  A    between atoms: _124  and  _125
REMARK   59  A    between atoms: _127  and  _129
REMARK   60  A    between atoms: _129  and  _130
REMARK   61  A    between atoms: _129  and  _132
REMARK   62  A    between atoms: _132  and  _133
REMARK   63  A    between atoms: _143  and  _145
REMARK   64  A    between atoms: _145  and  _146
REMARK   65  A    between atoms: _145  and  _148
REMARK   66  A    between atoms: _148  and  _149
REMARK   67  A    between atoms: _154  and  _156
REMARK   68  A    between atoms: _156  and  _157
REMARK   69  A    between atoms: _159  and  _161
REMARK   70  A    between atoms: _161  and  _162
REMARK   71  A    between atoms: _161  and  _164
REMARK   72  A    between atoms: _164  and  _165
REMARK   73  A    between atoms: _165  and  _166
REMARK   74  A    between atoms: _168  and  _170
REMARK   75  A    between atoms: _170  and  _171
REMARK   76  A    between atoms: _170  and  _173
REMARK   77  A    between atoms: _173  and  _174
REMARK   78  A    between atoms: _177  and  _179
REMARK   79  A    between atoms: _179  and  _180
REMARK   80  A    between atoms: _183  and  _185
REMARK   81  A    between atoms: _185  and  _186
REMARK   82  A    between atoms: _185  and  _188
REMARK   83  A    between atoms: _188  and  _189
REMARK   84  A    between atoms: _192  and  _194
REMARK   85  A    between atoms: _194  and  _195
REMARK   86  A    between atoms: _194  and  _197
REMARK   87  A    between atoms: _197  and  _198
REMARK   88  A    between atoms: _200  and  _202
REMARK   89  A    between atoms: _202  and  _203
REMARK   90  A    between atoms: _202  and  _205
REMARK   91  A    between atoms: _205  and  _206
REMARK   92  A    between atoms: _209  and  _211
REMARK   93  A    between atoms: _211  and  _212
REMARK   94  A    between atoms: _215  and  _217
REMARK   95  A    between atoms: _217  and  _218
REMARK   96  A    between atoms: _217  and  _220
REMARK   97  A    between atoms: _220  and  _221
REMARK   98  A    between atoms: _221  and  _222
REMARK   99  A    between atoms: _226  and  _227
REMARK  100  A    between atoms: _232  and  _234
REMARK  101  A    between atoms: _234  and  _235
REMARK  102  A    between atoms: _234  and  _237
REMARK  103  A    between atoms: _237  and  _238
REMARK  104  A    between atoms: _241  and  _243
REMARK  105  A    between atoms: _243  and  _244
REMARK  106  A    between atoms: _243  and  _246
REMARK  107  A    between atoms: _246  and  _247
REMARK  108  A    between atoms: _250  and  _252
REMARK  109  A    between atoms: _252  and  _253
REMARK  110  A    between atoms: _252  and  _255
REMARK  111  A    between atoms: _255  and  _256
REMARK  112  A    between atoms: _258  and  _260
REMARK  113  A    between atoms: _260  and  _261
REMARK  114  A    between atoms: _260  and  _263
REMARK  115  A    between atoms: _263  and  _264
REMARK  116  A    between atoms: _266  and  _268
REMARK  117  A    between atoms: _268  and  _269
REMARK  118  A    between atoms: _271  and  _273
REMARK  119  A    between atoms: _273  and  _274
REMARK  120  A    between atoms: _276  and  _278
REMARK  121  A    between atoms: _278  and  _279
REMARK  122  A    between atoms: _278  and  _281
REMARK  123  A    between atoms: _281  and  _282
REMARK  124  A    between atoms: _285  and  _287
REMARK  125  A    between atoms: _287  and  _288
REMARK  126  A    between atoms: _287  and  _290
REMARK  127  A    between atoms: _290  and  _291
REMARK  128  A    between atoms: _291  and  _292
REMARK  129  A    between atoms: _295  and  _297
REMARK  130  A    between atoms: _297  and  _298
REMARK  131  A    between atoms: _301  and  _303
REMARK  132  A    between atoms: _303  and  _304
REMARK  133  A    between atoms: _303  and  _306
REMARK  134  A    between atoms: _306  and  _307
REMARK  135  A    between atoms: _307  and  _308
REMARK  136  A    between atoms: _313  and  _315
REMARK  137  A    between atoms: _315  and  _316
REMARK  138  A    between atoms: _315  and  _318
REMARK  139  A    between atoms: _318  and  _319
REMARK  140  A    between atoms: _322  and  _324
REMARK  141  A    between atoms: _324  and  _325
REMARK  142  A    between atoms: _327  and  _329
REMARK  143  A    between atoms: _329  and  _330
REMARK  144  A    between atoms: _329  and  _332
REMARK  145  A    between atoms: _332  and  _333
REMARK  146  A    between atoms: _336  and  _338
REMARK  147  A    between atoms: _338  and  _339
REMARK  148  A    between atoms: _338  and  _341
REMARK  149  A    between atoms: _341  and  _342
REMARK  150  A    between atoms: _345  and  _347
REMARK  151  A    between atoms: _347  and  _348
REMARK  152  A    between atoms: _347  and  _350
REMARK  153  A    between atoms: _350  and  _351
REMARK  154  A    between atoms: _353  and  _355
REMARK  155  A    between atoms: _355  and  _356
REMARK  156  A    between atoms: _355  and  _358
REMARK  157  A    between atoms: _358  and  _359
REMARK  158  A    between atoms: _359  and  _360
REMARK  159  A    between atoms: _360  and  _361
REMARK  160  A    between atoms: _361  and  _362
REMARK  161  A    between atoms: _367  and  _368
REMARK  162  A    between atoms: _373  and  _375
REMARK  163  A    between atoms: _375  and  _376
REMARK  164  A    between atoms: _375  and  _378
REMARK  165  A    between atoms: _378  and  _379
REMARK  166  A    between atoms: _382  and  _384
REMARK  167  A    between atoms: _384  and  _385
REMARK  168  A    between atoms: _388  and  _390
REMARK  169  A    between atoms: _390  and  _391
REMARK  170  A    between atoms: _390  and  _393
REMARK  171  A    between atoms: _393  and  _394
REMARK  172  A    between atoms: _399  and  _401
REMARK  173  A    between atoms: _401  and  _402
REMARK  174  A    between atoms: _401  and  _404
REMARK  175  A    between atoms: _407  and  _409
REMARK  176  A    between atoms: _409  and  _410
REMARK  177  A    between atoms: _409  and  _412
REMARK  178  A    between atoms: _412  and  _413
REMARK  179  A    between atoms: _413  and  _414
REMARK  180  A    between atoms: _414  and  _415
REMARK  181  A    between atoms: _424  and  _426
REMARK  182  A    between atoms: _426  and  _427
REMARK  183  A    between atoms: _426  and  _429
REMARK  184  A    between atoms: _429  and  _430
REMARK  185  A    between atoms: _435  and  _437
REMARK  186  A    between atoms: _437  and  _438
REMARK  187  A    between atoms: _437  and  _440
REMARK  188  A    between atoms: _440  and  _441
REMARK  189  A    between atoms: _447  and  _449
REMARK  190  A    between atoms: _449  and  _450
REMARK  191  A    between atoms: _449  and  _452
REMARK  192  A    between atoms: _452  and  _453
REMARK  193  A    between atoms: _455  and  _457
REMARK  194  A    between atoms: _457  and  _458
REMARK  195  A    between atoms: _457  and  _460
REMARK  196  A    between atoms: _460  and  _461
REMARK  197  A    between atoms: _461  and  _462
REMARK  198  A    between atoms: _465  and  _467
REMARK  199  A    between atoms: _467  and  _468
REMARK  200  A    between atoms: _467  and  _470
REMARK  201  A    between atoms: _470  and  _471
REMARK  202  A    between atoms: _473  and  _475
REMARK  203  A    between atoms: _475  and  _476
REMARK  204  A    between atoms: _475  and  _478
REMARK  205  A    between atoms: _478  and  _479
REMARK  206  A    between atoms: _479  and  _480
REMARK  207  A    between atoms: _483  and  _485
REMARK  208  A    between atoms: _485  and  _486
REMARK  209  A    between atoms: _485  and  _488
REMARK  210  A    between atoms: _488  and  _489
REMARK  211  A    between atoms: _492  and  _494
REMARK  212  A    between atoms: _494  and  _495
REMARK  213  A    between atoms: _494  and  _497
REMARK  214  A    between atoms: _497  and  _498
REMARK  215  A    between atoms: _504  and  _506
REMARK  216  A    between atoms: _506  and  _507
REMARK  217  A    between atoms: _506  and  _509
REMARK  218  A    between atoms: _509  and  _510
REMARK  219  A    between atoms: _515  and  _516
REMARK  220  A    between atoms: _518  and  _520
REMARK  221  A    between atoms: _520  and  _521
REMARK  222  A    between atoms: _520  and  _523
REMARK  223  A    between atoms: _523  and  _524
REMARK  224  A    between atoms: _527  and  _529
REMARK  225  A    between atoms: _529  and  _530
REMARK  226  A    between atoms: _529  and  _532
REMARK  227  A    between atoms: _532  and  _533
REMARK  228  A    between atoms: _536  and  _538
REMARK  229  A    between atoms: _538  and  _539
REMARK  230  A    between atoms: _538  and  _541
REMARK  231  A    between atoms: _541  and  _542
REMARK  232  A    between atoms: _547  and  _549
REMARK  233  A    between atoms: _549  and  _550
REMARK  234  A    between atoms: _549  and  _552
REMARK                            x       y       z     vdW  Elec       q    Type
REMARK                         _______ _______ _______ _____ _____    ______ ____
ROOT
ATOM      1  CB  HIS A   1      13.063  38.550  19.576  0.00  0.00    +0.072 C 
ENDROOT
BRANCH   1   2
ATOM      2  CG  HIS A   1      12.921  40.049  19.654  0.00  0.00    +0.082 A 
ATOM      3  CD2 HIS A   1      11.822  40.855  19.749  0.00  0.00    +0.115 A 
ATOM      4  NE2 HIS A   1      12.278  42.162  19.811  0.00  0.00    -0.221 NA
ATOM      5  CE1 HIS A   1      13.605  42.157  19.741  0.00  0.00    +0.199 A 
ATOM      6  ND1 HIS A   1      14.014  40.895  19.607  0.00  0.00    -0.227 NA
ENDBRANCH   1   2
BRANCH   1   7
ATOM      7  CA  HIS A   1      13.066  37.809  20.975  0.00  0.00    +0.139 C 
BRANCH   7   8
ATOM      8  N   HIS A   1      12.559  36.479  20.815  0.00  0.00    -0.239 NA
ATOM      9  H   HIS A   1      11.532  36.338  20.738  0.00  0.00    +0.142 HD
ENDBRANCH   7   8
BRANCH   7  10
ATOM     10  C   HIS A   1      12.209  38.542  21.966  0.00  0.00    +0.224 C 
ATOM     11  O   HIS A   1      10.996  38.346  22.016  0.00  0.00    -0.287 OA
ENDBRANCH   7  10
ENDBRANCH   1   7
TORSDOF 4
REMARK  Name = ../refined-set-2016/1m0n/1m0n_pocket.pdb
REMARK  234 active torsions:
REMARK  status: ('A' for Active; 'I' for Inactive)
REMARK    1  A    between atoms: _1  and  _3
REMARK    2  A    between atoms: _3  and  _4
REMARK    3  A    between atoms: _3  and  _6
REMARK    4  A    between atoms: _6  and  _7
REMARK    5  A    between atoms: _10  and  _12
REMARK    6  A    between atoms: _12  and  _13
REMARK    7  A    between atoms: _12  and  _15
REMARK    8  A    between atoms: _15  and  _16
REMARK    9  A    between atoms: _18  and  _20
REMARK   10  A    between atoms: _20  and  _21
REMARK   11  A    between atoms: _23  and  _25
REMARK   12  A    between atoms: _25  and  _26
REMARK   13  A    between atoms: _25  and  _28
REMARK   14  A    between atoms: _28  and  _29
REMARK   15  A    between atoms: _29  and  _30
REMARK   16  A    between atoms: _35  and  _37
REMARK   17  A    between atoms: _37  and  _38
REMARK   18  A    between atoms: _37  and  _40
REMARK   19  A    between atoms: _40  and  _41
REMARK   20  A    between atoms: _41  and  _42
REMARK   21  A    between atoms: _44  and  _46
REMARK   22  A    between atoms: _46  and  _47
REMARK   23  A    between atoms: _46  and  _49
REMARK   24  A    between atoms: _49  and  _50
REMARK   25  A    between atoms: _52  and  _54
REMARK   26  A    between atoms: _54  and  _55
REMARK   27  A    between atoms: _54  and  _57
REMARK   28  A    between atoms: _57  and  _58
REMARK   29  A    between atoms: _60  and  _62
REMARK   30  A    between atoms: _62  and  _63
REMARK   31  A    between atoms: _62  and  _65
REMARK   32  A    between atoms: _65  and  _66
REMARK   33  A    between atoms: _69  and  _71
REMARK   34  A    between atoms: _71  and  _72
REMARK   35  A    between atoms: _74  and  _76
REMARK   36  A    between atoms: _76  and  _77
REMARK   37  A    between atoms: _80  and  _82
REMARK   38  A    between atoms: _82  and  _83
REMARK   39  A    between atoms: _82  and  _85
REMARK   40  A    between atoms: _85  and  _86
REMARK   41  A    between atoms: _86  and  _87
REMARK   42  A    between atoms: _90  and  _92
REMARK   43  A    between atoms: _92  and  _93
REMARK   44  A    between atoms: _92  and  _95
REMARK   45  A    between atoms: _95  and  _96
REMARK   46  A    between atoms: _98  and  _100
REMARK   47  A    between atoms: _100  and  _101
REMARK   48  A    between atoms: _100  and  _103
REMARK   49  A    between atoms: _103  and  _104
REMARK   50  A    between atoms: _109  and  _111
REMARK   51  A    between atoms: _111  and  _112
REMARK   52  A    between atoms: _111  and  _114
REMARK   53  A    between atoms: _114  and  _115
REMARK   54  A    between atoms: _115  and  _116
REMARK   55  A    between atoms: _119  and  _121
REMARK   56  A    between atoms: _121  and  _122
REMARK   57  A    between atoms: _121  and  _124
REMARK   58  A    between atoms: _124  and  _125
REMARK   59  A    between atoms: _127  and  _129
REMARK   60  A    between atoms: _129  and  _130
REMARK   61  A    between atoms: _129  and  _132
REMARK   62  A    between atoms: _132  and  _133
REMARK   63  A    between atoms: _143  and  _145
REMARK   64  A    between atoms: _145  and  _146
REMARK   65  A    between atoms: _145  and  _148
REMARK   66  A    between atoms: _148  and  _149
REMARK   67  A    between atoms: _154  and  _156
REMARK   68  A    between atoms: _156  and  _157
REMARK   69  A    between atoms: _159  and  _161
REMARK   70  A    between atoms: _161  and  _162
REMARK   71  A    between atoms: _161  and  _164
REMARK   72  A    between atoms: _164  and  _165
REMARK   73  A    between atoms: _165  and  _166
REMARK   74  A    between atoms: _168  and  _170
REMARK   75  A    between atoms: _170  and  _171
REMARK   76  A    between atoms: _170  and  _173
REMARK   77  A    between atoms: _173  and  _174
REMARK   78  A    between atoms: _177  and  _179
REMARK   79  A    between atoms: _179  and  _180
REMARK   80  A    between atoms: _183  and  _185
REMARK   81  A    between atoms: _185  and  _186
REMARK   82  A    between atoms: _185  and  _188
REMARK   83  A    between atoms: _188  and  _189
REMARK   84  A    between atoms: _192  and  _194
REMARK   85  A    between atoms: _194  and  _195
REMARK   86  A    between atoms: _194  and  _197
REMARK   87  A    between atoms: _197  and  _198
REMARK   88  A    between atoms: _200  and  _202
REMARK   89  A    between atoms: _202  and  _203
REMARK   90  A    between atoms: _202  and  _205
REMARK   91  A    between atoms: _205  and  _206
REMARK   92  A    between atoms: _209  and  _211
REMARK   93  A    between atoms: _211  and  _212
REMARK   94  A    between atoms: _215  and  _217
REMARK   95  A    between atoms: _217  and  _218
REMARK   96  A    between atoms: _217  and  _220
REMARK   97  A    between atoms: _220  and  _221
REMARK   98  A    between atoms: _221  and  _222
REMARK   99  A    between atoms: _226  and  _227
REMARK  100  A    between atoms: _232  and  _234
REMARK  101  A    between atoms: _234  and  _235
REMARK  102  A    between atoms: _234  and  _237
REMARK  103  A    between atoms: _237  and  _238
REMARK  104  A    between atoms: _241  and  _243
REMARK  105  A    between atoms: _243  and  _244
REMARK  106  A    between atoms: _243  and  _246
REMARK  107  A    between atoms: _246  and  _247
REMARK  108  A    between atoms: _250  and  _252
REMARK  109  A    between atoms: _252  and  _253
REMARK  110  A    between atoms: _252  and  _255
REMARK  111  A    between atoms: _255  and  _256
REMARK  112  A    between atoms: _258  and  _260
REMARK  113  A    between atoms: _260  and  _261
REMARK  114  A    between atoms: _260  and  _263
REMARK  115  A    between atoms: _263  and  _264
REMARK  116  A    between atoms: _266  and  _268
REMARK  117  A    between atoms: _268  and  _269
REMARK  118  A    between atoms: _271  and  _273
REMARK  119  A    between atoms: _273  and  _274
REMARK  120  A    between atoms: _276  and  _278
REMARK  121  A    between atoms: _278  and  _279
REMARK  122  A    between atoms: _278  and  _281
REMARK  123  A    between atoms: _281  and  _282
REMARK  124  A    between atoms: _285  and  _287
REMARK  125  A    between atoms: _287  and  _288
REMARK  126  A    between atoms: _287  and  _290
REMARK  127  A    between atoms: _290  and  _291
REMARK  128  A    between atoms: _291  and  _292
REMARK  129  A    between atoms: _295  and  _297
REMARK  130  A    between atoms: _297  and  _298
REMARK  131  A    between atoms: _301  and  _303
REMARK  132  A    between atoms: _303  and  _304
REMARK  133  A    between atoms: _303  and  _306
REMARK  134  A    between atoms: _306  and  _307
REMARK  135  A    between atoms: _307  and  _308
REMARK  136  A    between atoms: _313  and  _315
REMARK  137  A    between atoms: _315  and  _316
REMARK  138  A    between atoms: _315  and  _318
REMARK  139  A    between atoms: _318  and  _319
REMARK  140  A    between atoms: _322  and  _324
REMARK  141  A    between atoms: _324  and  _325
REMARK  142  A    between atoms: _327  and  _329
REMARK  143  A    between atoms: _329  and  _330
REMARK  144  A    between atoms: _329  and  _332
REMARK  145  A    between atoms: _332  and  _333
REMARK  146  A    between atoms: _336  and  _338
REMARK  147  A    between atoms: _338  and  _339
REMARK  148  A    between atoms: _338  and  _341
REMARK  149  A    between atoms: _341  and  _342
REMARK  150  A    between atoms: _345  and  _347
REMARK  151  A    between atoms: _347  and  _348
REMARK  152  A    between atoms: _347  and  _350
REMARK  153  A    between atoms: _350  and  _351
REMARK  154  A    between atoms: _353  and  _355
REMARK  155  A    between atoms: _355  and  _356
REMARK  156  A    between atoms: _355  and  _358
REMARK  157  A    between atoms: _358  and  _359
REMARK  158  A    between atoms: _359  and  _360
REMARK  159  A    between atoms: _360  and  _361
REMARK  160  A    between atoms: _361  and  _362
REMARK  161  A    between atoms: _367  and  _368
REMARK  162  A    between atoms: _373  and  _375
REMARK  163  A    between atoms: _375  and  _376
REMARK  164  A    between atoms: _375  and  _378
REMARK  165  A    between atoms: _378  and  _379
REMARK  166  A    between atoms: _382  and  _384
REMARK  167  A    between atoms: _384  and  _385
REMARK  168  A    between atoms: _388  and  _390
REMARK  169  A    between atoms: _390  and  _391
REMARK  170  A    between atoms: _390  and  _393
REMARK  171  A    between atoms: _393  and  _394
REMARK  172  A    between atoms: _399  and  _401
REMARK  173  A    between atoms: _401  and  _402
REMARK  174  A    between atoms: _401  and  _404
REMARK  175  A    between atoms: _407  and  _409
REMARK  176  A    between atoms: _409  and  _410
REMARK  177  A    between atoms: _409  and  _412
REMARK  178  A    between atoms: _412  and  _413
REMARK  179  A    between atoms: _413  and  _414
REMARK  180  A    between atoms: _414  and  _415
REMARK  181  A    between atoms: _424  and  _426
REMARK  182  A    between atoms: _426  and  _427
REMARK  183  A    between atoms: _426  and  _429
REMARK  184  A    between atoms: _429  and  _430
REMARK  185  A    between atoms: _435  and  _437
REMARK  186  A    between atoms: _437  and  _438
REMARK  187  A    between atoms: _437  and  _440
REMARK  188  A    between atoms: _440  and  _441
REMARK  189  A    between atoms: _447  and  _449
REMARK  190  A    between atoms: _449  and  _450
REMARK  191  A    between atoms: _449  and  _452
REMARK  192  A    between atoms: _452  and  _453
REMARK  193  A    between atoms: _455  and  _457
REMARK  194  A    between atoms: _457  and  _458
REMARK  195  A    between atoms: _457  and  _460
REMARK  196  A    between atoms: _460  and  _461
REMARK  197  A    between atoms: _461  and  _462
REMARK  198  A    between atoms: _465  and  _467
REMARK  199  A    between atoms: _467  and  _468
REMARK  200  A    between atoms: _467  and  _470
REMARK  201  A    between atoms: _470  and  _471
REMARK  202  A    between atoms: _473  and  _475
REMARK  203  A    between atoms: _475  and  _476
REMARK  204  A    between atoms: _475  and  _478
REMARK  205  A    between atoms: _478  and  _479
REMARK  206  A    between atoms: _479  and  _480
REMARK  207  A    between atoms: _483  and  _485
REMARK  208  A    between atoms: _485  and  _486
REMARK  209  A    between atoms: _485  and  _488
REMARK  210  A    between atoms: _488  and  _489
REMARK  211  A    between atoms: _492  and  _494
REMARK  212  A    between atoms: _494  and  _495
REMARK  213  A    between atoms: _494  and  _497
REMARK  214  A    between atoms: _497  and  _498
REMARK  215  A    between atoms: _504  and  _506
REMARK  216  A    between atoms: _506  and  _507
REMARK  217  A    between atoms: _506  and  _509
REMARK  218  A    between atoms: _509  and  _510
REMARK  219  A    between atoms: _515  and  _516
REMARK  220  A    between atoms: _518  and  _520
REMARK  221  A    between atoms: _520  and  _521
REMARK  222  A    between atoms: _520  and  _523
REMARK  223  A    between atoms: _523  and  _524
REMARK  224  A    between atoms: _527  and  _529
REMARK  225  A    between atoms: _529  and  _530
REMARK  226  A    between atoms: _529  and  _532
REMARK  227  A    between atoms: _532  and  _533
REMARK  228  A    between atoms: _536  and  _538
REMARK  229  A    between atoms: _538  and  _539
REMARK  230  A    between atoms: _538  and  _541
REMARK  231  A    between atoms: _541  and  _542
REMARK  232  A    between atoms: _547  and  _549
REMARK  233  A    between atoms: _549  and  _550
REMARK  234  A    between atoms: _549  and  _552
REMARK                            x       y       z     vdW  Elec       q    Type
REMARK                         _______ _______ _______ _____ _____    ______ ____
ROOT
ATOM      1  CA  SER A   2      15.634  44.643  25.865  0.00  0.00    +0.178 C 
ENDROOT
BRANCH   1   4
ATOM      2  C   PHE A   1      13.428  43.744  25.650  0.00  0.00    +0.239 C 
ATOM      3  O   PHE A   1      13.656  42.871  26.477  0.00  0.00    -0.274 OA
ATOM      4  N   SER A   2      14.296  44.686  25.353  0.00  0.00    -0.295 N 
ATOM      5  H   SER A   2      14.008  45.473  24.738  0.00  0.00    +0.150 HD
BRANCH   2   6
ATOM      6  CA  PHE A   1      12.122  43.790  24.920  0.00  0.00    +0.149 C 
BRANCH   6   7
ATOM      7  N   PHE A   1      11.843  42.424  24.554  0.00  0.00    -0.238 NA
ATOM      8  H   PHE A   1      10.925  42.030  24.842  0.00  0.00    +0.142 HD
ENDBRANCH   6   7
BRANCH   6   9
ATOM      9  CB  PHE A   1      11.042  44.261  25.884  0.00  0.00    +0.053 C 
BRANCH   9  10
ATOM     10  CG  PHE A   1      11.217  45.692  26.369  0.00  0.00    -0.020 A 
ATOM     11  CD2 PHE A   1      11.549  45.957  27.706  0.00  0.00    -0.004 A 
ATOM     12  CE2 PHE A   1      11.654  47.267  28.147  0.00  0.00    -0.000 A 
ATOM     13  CZ  PHE A   1      11.409  48.326  27.258  0.00  0.00    -0.000 A 
ATOM     14  CE1 PHE A   1      11.038  48.086  25.948  0.00  0.00    -0.000 A 
ATOM     15  CD1 PHE A   1      10.961  46.787  25.508  0.00  0.00    -0.004 A 
ENDBRANCH   9  10
ENDBRANCH   6   9
ENDBRANCH   2   6
ENDBRANCH   1   4
BRANCH   1  16
ATOM     16  C   SER A   2      15.796  44.781  27.408  0.00  0.00    +0.243 C 
ATOM     17  N   GLU A   3      14.671  45.037  28.069  0.00  0.00    -0.298 N 
ATOM     18  H   GLU A   3      13.771  45.120  27.554  0.00  0.00    +0.150 HD
ATOM     19  O   SER A   2      16.911  44.596  27.993  0.00  0.00    -0.273 OA
BRANCH  17  20
ATOM     20  CA  GLU A   3      14.702  45.196  29.474  0.00  0.00    +0.137 C 
BRANCH  20  21
ATOM     21  C   GLU A   3      14.220  43.976  30.191  0.00  0.00    +0.227 C 
ATOM     22  O   GLU A   3      14.369  43.841  31.389  0.00  0.00    -0.286 OA
ENDBRANCH  20  21
BRANCH  20  23
ATOM     23  CB  GLU A   3      14.067  46.555  29.895  0.00  0.00    +0.039 C 
BRANCH  23  24
ATOM     24  CG  GLU A   3      14.853  47.890  29.231  0.00  0.00    +0.116 C 
BRANCH  24  25
ATOM     25  CD  GLU A   3      14.462  49.367  29.712  0.00  0.00    +0.365 C 
ATOM     26  OE2 GLU A   3      14.104  49.645  30.913  0.00  0.00    -0.246 OA
ATOM     27  OE1 GLU A   3      14.612  50.267  28.844  0.00  0.00    -0.246 OA
ENDBRANCH  24  25
ENDBRANCH  23  24
ENDBRANCH  20  23
ENDBRANCH  17  20
ENDBRANCH   1  16
BRANCH   1  28
ATOM     28  CB  SER A   2      16.558  45.528  25.002  0.00  0.00    +0.166 C 
BRANCH  28  29
ATOM     29  OG  SER A   2      16.599  44.927  23.699  0.00  0.00    -0.380 OA
ATOM     30  H   SER A   2      17.184  45.464  23.107  0.00  0.00    +0.211 HD
ENDBRANCH  28  29
ENDBRANCH   1  28
TORSDOF 13
REMARK  Name = ../refined-set-2016/1m0n/1m0n_pocket.pdb
REMARK  234 active torsions:
REMARK  status: ('A' for Active; 'I' for Inactive)
REMARK    1  A    between atoms: _1  and  _3
REMARK    2  A    between atoms: _3  and  _4
REMARK    3  A    between atoms: _3  and  _6
REMARK    4  A    between atoms: _6  and  _7
REMARK    5  A    between atoms: _10  and  _12
REMARK    6  A    between atoms: _12  and  _13
REMARK    7  A    between atoms: _12  and  _15
REMARK    8  A    between atoms: _15  and  _16
REMARK    9  A    between atoms: _18  and  _20
REMARK   10  A    between atoms: _20  and  _21
REMARK   11  A    between atoms: _23  and  _25
REMARK   12  A    between atoms: _25  and  _26
REMARK   13  A    between atoms: _25  and  _28
REMARK   14  A    between atoms: _28  and  _29
REMARK   15  A    between atoms: _29  and  _30
REMARK   16  A    between atoms: _35  and  _37
REMARK   17  A    between atoms: _37  and  _38
REMARK   18  A    between atoms: _37  and  _40
REMARK   19  A    between atoms: _40  and  _41
REMARK   20  A    between atoms: _41  and  _42
REMARK   21  A    between atoms: _44  and  _46
REMARK   22  A    between atoms: _46  and  _47
REMARK   23  A    between atoms: _46  and  _49
REMARK   24  A    between atoms: _49  and  _50
REMARK   25  A    between atoms: _52  and  _54
REMARK   26  A    between atoms: _54  and  _55
REMARK   27  A    between atoms: _54  and  _57
REMARK   28  A    between atoms: _57  and  _58
REMARK   29  A    between atoms: _60  and  _62
REMARK   30  A    between atoms: _62  and  _63
REMARK   31  A    between atoms: _62  and  _65
REMARK   32  A    between atoms: _65  and  _66
REMARK   33  A    between atoms: _69  and  _71
REMARK   34  A    between atoms: _71  and  _72
REMARK   35  A    between atoms: _74  and  _76
REMARK   36  A    between atoms: _76  and  _77
REMARK   37  A    between atoms: _80  and  _82
REMARK   38  A    between atoms: _82  and  _83
REMARK   39  A    between atoms: _82  and  _85
REMARK   40  A    between atoms: _85  and  _86
REMARK   41  A    between atoms: _86  and  _87
REMARK   42  A    between atoms: _90  and  _92
REMARK   43  A    between atoms: _92  and  _93
REMARK   44  A    between atoms: _92  and  _95
REMARK   45  A    between atoms: _95  and  _96
REMARK   46  A    between atoms: _98  and  _100
REMARK   47  A    between atoms: _100  and  _101
REMARK   48  A    between atoms: _100  and  _103
REMARK   49  A    between atoms: _103  and  _104
REMARK   50  A    between atoms: _109  and  _111
REMARK   51  A    between atoms: _111  and  _112
REMARK   52  A    between atoms: _111  and  _114
REMARK   53  A    between atoms: _114  and  _115
REMARK   54  A    between atoms: _115  and  _116
REMARK   55  A    between atoms: _119  and  _121
REMARK   56  A    between atoms: _121  and  _122
REMARK   57  A    between atoms: _121  and  _124
REMARK   58  A    between atoms: _124  and  _125
REMARK   59  A    between atoms: _127  and  _129
REMARK   60  A    between atoms: _129  and  _130
REMARK   61  A    between atoms: _129  and  _132
REMARK   62  A    between atoms: _132  and  _133
REMARK   63  A    between atoms: _143  and  _145
REMARK   64  A    between atoms: _145  and  _146
REMARK   65  A    between atoms: _145  and  _148
REMARK   66  A    between atoms: _148  and  _149
REMARK   67  A    between atoms: _154  and  _156
REMARK   68  A    between atoms: _156  and  _157
REMARK   69  A    between atoms: _159  and  _161
REMARK   70  A    between atoms: _161  and  _162
REMARK   71  A    between atoms: _161  and  _164
REMARK   72  A    between atoms: _164  and  _165
REMARK   73  A    between atoms: _165  and  _166
REMARK   74  A    between atoms: _168  and  _170
REMARK   75  A    between atoms: _170  and  _171
REMARK   76  A    between atoms: _170  and  _173
REMARK   77  A    between atoms: _173  and  _174
REMARK   78  A    between atoms: _177  and  _179
REMARK   79  A    between atoms: _179  and  _180
REMARK   80  A    between atoms: _183  and  _185
REMARK   81  A    between atoms: _185  and  _186
REMARK   82  A    between atoms: _185  and  _188
REMARK   83  A    between atoms: _188  and  _189
REMARK   84  A    between atoms: _192  and  _194
REMARK   85  A    between atoms: _194  and  _195
REMARK   86  A    between atoms: _194  and  _197
REMARK   87  A    between atoms: _197  and  _198
REMARK   88  A    between atoms: _200  and  _202
REMARK   89  A    between atoms: _202  and  _203
REMARK   90  A    between atoms: _202  and  _205
REMARK   91  A    between atoms: _205  and  _206
REMARK   92  A    between atoms: _209  and  _211
REMARK   93  A    between atoms: _211  and  _212
REMARK   94  A    between atoms: _215  and  _217
REMARK   95  A    between atoms: _217  and  _218
REMARK   96  A    between atoms: _217  and  _220
REMARK   97  A    between atoms: _220  and  _221
REMARK   98  A    between atoms: _221  and  _222
REMARK   99  A    between atoms: _226  and  _227
REMARK  100  A    between atoms: _232  and  _234
REMARK  101  A    between atoms: _234  and  _235
REMARK  102  A    between atoms: _234  and  _237
REMARK  103  A    between atoms: _237  and  _238
REMARK  104  A    between atoms: _241  and  _243
REMARK  105  A    between atoms: _243  and  _244
REMARK  106  A    between atoms: _243  and  _246
REMARK  107  A    between atoms: _246  and  _247
REMARK  108  A    between atoms: _250  and  _252
REMARK  109  A    between atoms: _252  and  _253
REMARK  110  A    between atoms: _252  and  _255
REMARK  111  A    between atoms: _255  and  _256
REMARK  112  A    between atoms: _258  and  _260
REMARK  113  A    between atoms: _260  and  _261
REMARK  114  A    between atoms: _260  and  _263
REMARK  115  A    between atoms: _263  and  _264
REMARK  116  A    between atoms: _266  and  _268
REMARK  117  A    between atoms: _268  and  _269
REMARK  118  A    between atoms: _271  and  _273
REMARK  119  A    between atoms: _273  and  _274
REMARK  120  A    between atoms: _276  and  _278
REMARK  121  A    between atoms: _278  and  _279
REMARK  122  A    between atoms: _278  and  _281
REMARK  123  A    between atoms: _281  and  _282
REMARK  124  A    between atoms: _285  and  _287
REMARK  125  A    between atoms: _287  and  _288
REMARK  126  A    between atoms: _287  and  _290
REMARK  127  A    between atoms: _290  and  _291
REMARK  128  A    between atoms: _291  and  _292
REMARK  129  A    between atoms: _295  and  _297
REMARK  130  A    between atoms: _297  and  _298
REMARK  131  A    between atoms: _301  and  _303
REMARK  132  A    between atoms: _303  and  _304
REMARK  133  A    between atoms: _303  and  _306
REMARK  134  A    between atoms: _306  and  _307
REMARK  135  A    between atoms: _307  and  _308
REMARK  136  A    between atoms: _313  and  _315
REMARK  137  A    between atoms: _315  and  _316
REMARK  138  A    between atoms: _315  and  _318
REMARK  139  A    between atoms: _318  and  _319
REMARK  140  A    between atoms: _322  and  _324
REMARK  141  A    between atoms: _324  and  _325
REMARK  142  A    between atoms: _327  and  _329
REMARK  143  A    between atoms: _329  and  _330
REMARK  144  A    between atoms: _329  and  _332
REMARK  145  A    between atoms: _332  and  _333
REMARK  146  A    between atoms: _336  and  _338
REMARK  147  A    between atoms: _338  and  _339
REMARK  148  A    between atoms: _338  and  _341
REMARK  149  A    between atoms: _341  and  _342
REMARK  150  A    between atoms: _345  and  _347
REMARK  151  A    between atoms: _347  and  _348
REMARK  152  A    between atoms: _347  and  _350
REMARK  153  A    between atoms: _350  and  _351
REMARK  154  A    between atoms: _353  and  _355
REMARK  155  A    between atoms: _355  and  _356
REMARK  156  A    between atoms: _355  and  _358
REMARK  157  A    between atoms: _358  and  _359
REMARK  158  A    between atoms: _359  and  _360
REMARK  159  A    between atoms: _360  and  _361
REMARK  160  A    between atoms: _361  and  _362
REMARK  161  A    between atoms: _367  and  _368
REMARK  162  A    between atoms: _373  and  _375
REMARK  163  A    between atoms: _375  and  _376
REMARK  164  A    between atoms: _375  and  _378
REMARK  165  A    between atoms: _378  and  _379
REMARK  166  A    between atoms: _382  and  _384
REMARK  167  A    between atoms: _384  and  _385
REMARK  168  A    between atoms: _388  and  _390
REMARK  169  A    between atoms: _390  and  _391
REMARK  170  A    between atoms: _390  and  _393
REMARK  171  A    between atoms: _393  and  _394
REMARK  172  A    between atoms: _399  and  _401
REMARK  173  A    between atoms: _401  and  _402
REMARK  174  A    between atoms: _401  and  _404
REMARK  175  A    between atoms: _407  and  _409
REMARK  176  A    between atoms: _409  and  _410
REMARK  177  A    between atoms: _409  and  _412
REMARK  178  A    between atoms: _412  and  _413
REMARK  179  A    between atoms: _413  and  _414
REMARK  180  A    between atoms: _414  and  _415
REMARK  181  A    between atoms: _424  and  _426
REMARK  182  A    between atoms: _426  and  _427
REMARK  183  A    between atoms: _426  and  _429
REMARK  184  A    between atoms: _429  and  _430
REMARK  185  A    between atoms: _435  and  _437
REMARK  186  A    between atoms: _437  and  _438
REMARK  187  A    between atoms: _437  and  _440
REMARK  188  A    between atoms: _440  and  _441
REMARK  189  A    between atoms: _447  and  _449
REMARK  190  A    between atoms: _449  and  _450
REMARK  191  A    between atoms: _449  and  _452
REMARK  192  A    between atoms: _452  and  _453
REMARK  193  A    between atoms: _455  and  _457
REMARK  194  A    between atoms: _457  and  _458
REMARK  195  A    between atoms: _457  and  _460
REMARK  196  A    between atoms: _460  and  _461
REMARK  197  A    between atoms: _461  and  _462
REMARK  198  A    between atoms: _465  and  _467
REMARK  199  A    between atoms: _467  and  _468
REMARK  200  A    between atoms: _467  and  _470
REMARK  201  A    between atoms: _470  and  _471
REMARK  202  A    between atoms: _473  and  _475
REMARK  203  A    between atoms: _475  and  _476
REMARK  204  A    between atoms: _475  and  _478
REMARK  205  A    between atoms: _478  and  _479
REMARK  206  A    between atoms: _479  and  _480
REMARK  207  A    between atoms: _483  and  _485
REMARK  208  A    between atoms: _485  and  _486
REMARK  209  A    between atoms: _485  and  _488
REMARK  210  A    between atoms: _488  and  _489
REMARK  211  A    between atoms: _492  and  _494
REMARK  212  A    between atoms: _494  and  _495
REMARK  213  A    between atoms: _494  and  _497
REMARK  214  A    between atoms: _497  and  _498
REMARK  215  A    between atoms: _504  and  _506
REMARK  216  A    between atoms: _506  and  _507
REMARK  217  A    between atoms: _506  and  _509
REMARK  218  A    between atoms: _509  and  _510
REMARK  219  A    between atoms: _515  and  _516
REMARK  220  A    between atoms: _518  and  _520
REMARK  221  A    between atoms: _520  and  _521
REMARK  222  A    between atoms: _520  and  _523
REMARK  223  A    between atoms: _523  and  _524
REMARK  224  A    between atoms: _527  and  _529
REMARK  225  A    between atoms: _529  and  _530
REMARK  226  A    between atoms: _529  and  _532
REMARK  227  A    between atoms: _532  and  _533
REMARK  228  A    between atoms: _536  and  _538
REMARK  229  A    between atoms: _538  and  _539
REMARK  230  A    between atoms: _538  and  _541
REMARK  231  A    between atoms: _541  and  _542
REMARK  232  A    between atoms: _547  and  _549
REMARK  233  A    between atoms: _549  and  _550
REMARK  234  A    between atoms: _549  and  _552
REMARK                            x       y       z     vdW  Elec       q    Type
REMARK                         _______ _______ _______ _____ _____    ______ ____
ROOT
ATOM      1  CA  SER A   1      24.944  40.476  17.562  0.00  0.00    +0.163 C 
ENDROOT
BRANCH   1   2
ATOM      2  N   SER A   1      25.175  41.146  18.807  0.00  0.00    -0.237 NA
ATOM      3  H   SER A   1      25.484  42.139  18.814  0.00  0.00    +0.142 HD
ENDBRANCH   1   2
BRANCH   1   4
ATOM      4  C   SER A   1      26.120  40.343  16.684  0.00  0.00    +0.227 C 
ATOM      5  O   SER A   1      26.350  39.270  16.156  0.00  0.00    -0.287 OA
ENDBRANCH   1   4
BRANCH   1   6
ATOM      6  CB  SER A   1      23.814  41.153  16.825  0.00  0.00    +0.162 C 
BRANCH   6   7
ATOM      7  OG  SER A   1      22.702  41.255  17.687  0.00  0.00    -0.380 OA
ATOM      8  H   SER A   1      22.422  40.349  17.971  0.00  0.00    +0.211 HD
ENDBRANCH   6   7
ENDBRANCH   1   6
TORSDOF 4
REMARK  Name = ../refined-set-2016/1m0n/1m0n_pocket.pdb
REMARK  234 active torsions:
REMARK  status: ('A' for Active; 'I' for Inactive)
REMARK    1  A    between atoms: _1  and  _3
REMARK    2  A    between atoms: _3  and  _4
REMARK    3  A    between atoms: _3  and  _6
REMARK    4  A    between atoms: _6  and  _7
REMARK    5  A    between atoms: _10  and  _12
REMARK    6  A    between atoms: _12  and  _13
REMARK    7  A    between atoms: _12  and  _15
REMARK    8  A    between atoms: _15  and  _16
REMARK    9  A    between atoms: _18  and  _20
REMARK   10  A    between atoms: _20  and  _21
REMARK   11  A    between atoms: _23  and  _25
REMARK   12  A    between atoms: _25  and  _26
REMARK   13  A    between atoms: _25  and  _28
REMARK   14  A    between atoms: _28  and  _29
REMARK   15  A    between atoms: _29  and  _30
REMARK   16  A    between atoms: _35  and  _37
REMARK   17  A    between atoms: _37  and  _38
REMARK   18  A    between atoms: _37  and  _40
REMARK   19  A    between atoms: _40  and  _41
REMARK   20  A    between atoms: _41  and  _42
REMARK   21  A    between atoms: _44  and  _46
REMARK   22  A    between atoms: _46  and  _47
REMARK   23  A    between atoms: _46  and  _49
REMARK   24  A    between atoms: _49  and  _50
REMARK   25  A    between atoms: _52  and  _54
REMARK   26  A    between atoms: _54  and  _55
REMARK   27  A    between atoms: _54  and  _57
REMARK   28  A    between atoms: _57  and  _58
REMARK   29  A    between atoms: _60  and  _62
REMARK   30  A    between atoms: _62  and  _63
REMARK   31  A    between atoms: _62  and  _65
REMARK   32  A    between atoms: _65  and  _66
REMARK   33  A    between atoms: _69  and  _71
REMARK   34  A    between atoms: _71  and  _72
REMARK   35  A    between atoms: _74  and  _76
REMARK   36  A    between atoms: _76  and  _77
REMARK   37  A    between atoms: _80  and  _82
REMARK   38  A    between atoms: _82  and  _83
REMARK   39  A    between atoms: _82  and  _85
REMARK   40  A    between atoms: _85  and  _86
REMARK   41  A    between atoms: _86  and  _87
REMARK   42  A    between atoms: _90  and  _92
REMARK   43  A    between atoms: _92  and  _93
REMARK   44  A    between atoms: _92  and  _95
REMARK   45  A    between atoms: _95  and  _96
REMARK   46  A    between atoms: _98  and  _100
REMARK   47  A    between atoms: _100  and  _101
REMARK   48  A    between atoms: _100  and  _103
REMARK   49  A    between atoms: _103  and  _104
REMARK   50  A    between atoms: _109  and  _111
REMARK   51  A    between atoms: _111  and  _112
REMARK   52  A    between atoms: _111  and  _114
REMARK   53  A    between atoms: _114  and  _115
REMARK   54  A    between atoms: _115  and  _116
REMARK   55  A    between atoms: _119  and  _121
REMARK   56  A    between atoms: _121  and  _122
REMARK   57  A    between atoms: _121  and  _124
REMARK   58  A    between atoms: _124  and  _125
REMARK   59  A    between atoms: _127  and  _129
REMARK   60  A    between atoms: _129  and  _130
REMARK   61  A    between atoms: _129  and  _132
REMARK   62  A    between atoms: _132  and  _133
REMARK   63  A    between atoms: _143  and  _145
REMARK   64  A    between atoms: _145  and  _146
REMARK   65  A    between atoms: _145  and  _148
REMARK   66  A    between atoms: _148  and  _149
REMARK   67  A    between atoms: _154  and  _156
REMARK   68  A    between atoms: _156  and  _157
REMARK   69  A    between atoms: _159  and  _161
REMARK   70  A    between atoms: _161  and  _162
REMARK   71  A    between atoms: _161  and  _164
REMARK   72  A    between atoms: _164  and  _165
REMARK   73  A    between atoms: _165  and  _166
REMARK   74  A    between atoms: _168  and  _170
REMARK   75  A    between atoms: _170  and  _171
REMARK   76  A    between atoms: _170  and  _173
REMARK   77  A    between atoms: _173  and  _174
REMARK   78  A    between atoms: _177  and  _179
REMARK   79  A    between atoms: _179  and  _180
REMARK   80  A    between atoms: _183  and  _185
REMARK   81  A    between atoms: _185  and  _186
REMARK   82  A    between atoms: _185  and  _188
REMARK   83  A    between atoms: _188  and  _189
REMARK   84  A    between atoms: _192  and  _194
REMARK   85  A    between atoms: _194  and  _195
REMARK   86  A    between atoms: _194  and  _197
REMARK   87  A    between atoms: _197  and  _198
REMARK   88  A    between atoms: _200  and  _202
REMARK   89  A    between atoms: _202  and  _203
REMARK   90  A    between atoms: _202  and  _205
REMARK   91  A    between atoms: _205  and  _206
REMARK   92  A    between atoms: _209  and  _211
REMARK   93  A    between atoms: _211  and  _212
REMARK   94  A    between atoms: _215  and  _217
REMARK   95  A    between atoms: _217  and  _218
REMARK   96  A    between atoms: _217  and  _220
REMARK   97  A    between atoms: _220  and  _221
REMARK   98  A    between atoms: _221  and  _222
REMARK   99  A    between atoms: _226  and  _227
REMARK  100  A    between atoms: _232  and  _234
REMARK  101  A    between atoms: _234  and  _235
REMARK  102  A    between atoms: _234  and  _237
REMARK  103  A    between atoms: _237  and  _238
REMARK  104  A    between atoms: _241  and  _243
REMARK  105  A    between atoms: _243  and  _244
REMARK  106  A    between atoms: _243  and  _246
REMARK  107  A    between atoms: _246  and  _247
REMARK  108  A    between atoms: _250  and  _252
REMARK  109  A    between atoms: _252  and  _253
REMARK  110  A    between atoms: _252  and  _255
REMARK  111  A    between atoms: _255  and  _256
REMARK  112  A    between atoms: _258  and  _260
REMARK  113  A    between atoms: _260  and  _261
REMARK  114  A    between atoms: _260  and  _263
REMARK  115  A    between atoms: _263  and  _264
REMARK  116  A    between atoms: _266  and  _268
REMARK  117  A    between atoms: _268  and  _269
REMARK  118  A    between atoms: _271  and  _273
REMARK  119  A    between atoms: _273  and  _274
REMARK  120  A    between atoms: _276  and  _278
REMARK  121  A    between atoms: _278  and  _279
REMARK  122  A    between atoms: _278  and  _281
REMARK  123  A    between atoms: _281  and  _282
REMARK  124  A    between atoms: _285  and  _287
REMARK  125  A    between atoms: _287  and  _288
REMARK  126  A    between atoms: _287  and  _290
REMARK  127  A    between atoms: _290  and  _291
REMARK  128  A    between atoms: _291  and  _292
REMARK  129  A    between atoms: _295  and  _297
REMARK  130  A    between atoms: _297  and  _298
REMARK  131  A    between atoms: _301  and  _303
REMARK  132  A    between atoms: _303  and  _304
REMARK  133  A    between atoms: _303  and  _306
REMARK  134  A    between atoms: _306  and  _307
REMARK  135  A    between atoms: _307  and  _308
REMARK  136  A    between atoms: _313  and  _315
REMARK  137  A    between atoms: _315  and  _316
REMARK  138  A    between atoms: _315  and  _318
REMARK  139  A    between atoms: _318  and  _319
REMARK  140  A    between atoms: _322  and  _324
REMARK  141  A    between atoms: _324  and  _325
REMARK  142  A    between atoms: _327  and  _329
REMARK  143  A    between atoms: _329  and  _330
REMARK  144  A    between atoms: _329  and  _332
REMARK  145  A    between atoms: _332  and  _333
REMARK  146  A    between atoms: _336  and  _338
REMARK  147  A    between atoms: _338  and  _339
REMARK  148  A    between atoms: _338  and  _341
REMARK  149  A    between atoms: _341  and  _342
REMARK  150  A    between atoms: _345  and  _347
REMARK  151  A    between atoms: _347  and  _348
REMARK  152  A    between atoms: _347  and  _350
REMARK  153  A    between atoms: _350  and  _351
REMARK  154  A    between atoms: _353  and  _355
REMARK  155  A    between atoms: _355  and  _356
REMARK  156  A    between atoms: _355  and  _358
REMARK  157  A    between atoms: _358  and  _359
REMARK  158  A    between atoms: _359  and  _360
REMARK  159  A    between atoms: _360  and  _361
REMARK  160  A    between atoms: _361  and  _362
REMARK  161  A    between atoms: _367  and  _368
REMARK  162  A    between atoms: _373  and  _375
REMARK  163  A    between atoms: _375  and  _376
REMARK  164  A    between atoms: _375  and  _378
REMARK  165  A    between atoms: _378  and  _379
REMARK  166  A    between atoms: _382  and  _384
REMARK  167  A    between atoms: _384  and  _385
REMARK  168  A    between atoms: _388  and  _390
REMARK  169  A    between atoms: _390  and  _391
REMARK  170  A    between atoms: _390  and  _393
REMARK  171  A    between atoms: _393  and  _394
REMARK  172  A    between atoms: _399  and  _401
REMARK  173  A    between atoms: _401  and  _402
REMARK  174  A    between atoms: _401  and  _404
REMARK  175  A    between atoms: _407  and  _409
REMARK  176  A    between atoms: _409  and  _410
REMARK  177  A    between atoms: _409  and  _412
REMARK  178  A    between atoms: _412  and  _413
REMARK  179  A    between atoms: _413  and  _414
REMARK  180  A    between atoms: _414  and  _415
REMARK  181  A    between atoms: _424  and  _426
REMARK  182  A    between atoms: _426  and  _427
REMARK  183  A    between atoms: _426  and  _429
REMARK  184  A    between atoms: _429  and  _430
REMARK  185  A    between atoms: _435  and  _437
REMARK  186  A    between atoms: _437  and  _438
REMARK  187  A    between atoms: _437  and  _440
REMARK  188  A    between atoms: _440  and  _441
REMARK  189  A    between atoms: _447  and  _449
REMARK  190  A    between atoms: _449  and  _450
REMARK  191  A    between atoms: _449  and  _452
REMARK  192  A    between atoms: _452  and  _453
REMARK  193  A    between atoms: _455  and  _457
REMARK  194  A    between atoms: _457  and  _458
REMARK  195  A    between atoms: _457  and  _460
REMARK  196  A    between atoms: _460  and  _461
REMARK  197  A    between atoms: _461  and  _462
REMARK  198  A    between atoms: _465  and  _467
REMARK  199  A    between atoms: _467  and  _468
REMARK  200  A    between atoms: _467  and  _470
REMARK  201  A    between atoms: _470  and  _471
REMARK  202  A    between atoms: _473  and  _475
REMARK  203  A    between atoms: _475  and  _476
REMARK  204  A    between atoms: _475  and  _478
REMARK  205  A    between atoms: _478  and  _479
REMARK  206  A    between atoms: _479  and  _480
REMARK  207  A    between atoms: _483  and  _485
REMARK  208  A    between atoms: _485  and  _486
REMARK  209  A    between atoms: _485  and  _488
REMARK  210  A    between atoms: _488  and  _489
REMARK  211  A    between atoms: _492  and  _494
REMARK  212  A    between atoms: _494  and  _495
REMARK  213  A    between atoms: _494  and  _497
REMARK  214  A    between atoms: _497  and  _498
REMARK  215  A    between atoms: _504  and  _506
REMARK  216  A    between atoms: _506  and  _507
REMARK  217  A    between atoms: _506  and  _509
REMARK  218  A    between atoms: _509  and  _510
REMARK  219  A    between atoms: _515  and  _516
REMARK  220  A    between atoms: _518  and  _520
REMARK  221  A    between atoms: _520  and  _521
REMARK  222  A    between atoms: _520  and  _523
REMARK  223  A    between atoms: _523  and  _524
REMARK  224  A    between atoms: _527  and  _529
REMARK  225  A    between atoms: _529  and  _530
REMARK  226  A    between atoms: _529  and  _532
REMARK  227  A    between atoms: _532  and  _533
REMARK  228  A    between atoms: _536  and  _538
REMARK  229  A    between atoms: _538  and  _539
REMARK  230  A    between atoms: _538  and  _541
REMARK  231  A    between atoms: _541  and  _542
REMARK  232  A    between atoms: _547  and  _549
REMARK  233  A    between atoms: _549  and  _550
REMARK  234  A    between atoms: _549  and  _552
REMARK                            x       y       z     vdW  Elec       q    Type
REMARK                         _______ _______ _______ _____ _____    ______ ____
ROOT
ATOM      1  CA  GLU A   1      29.209  45.714  17.445  0.00  0.00    +0.134 C 
ENDROOT
BRANCH   1   2
ATOM      2  N   GLU A   1      30.117  45.309  16.369  0.00  0.00    -0.239 NA
ATOM      3  H   GLU A   1      29.767  44.624  15.669  0.00  0.00    +0.142 HD
ENDBRANCH   1   2
BRANCH   1   4
ATOM      4  C   GLU A   1      29.923  45.442  18.756  0.00  0.00    +0.224 C 
ATOM      5  O   GLU A   1      30.168  46.355  19.514  0.00  0.00    -0.287 OA
ENDBRANCH   1   4
BRANCH   1   6
ATOM      6  CB  GLU A   1      27.953  44.870  17.364  0.00  0.00    +0.037 C 
BRANCH   6   7
ATOM      7  CG  GLU A   1      26.737  45.562  17.903  0.00  0.00    +0.116 C 
BRANCH   7   8
ATOM      8  CD  GLU A   1      25.501  44.646  17.964  0.00  0.00    +0.365 C 
ATOM      9  OE2 GLU A   1      24.421  45.218  18.225  0.00  0.00    -0.246 OA
ATOM     10  OE1 GLU A   1      25.597  43.373  17.793  0.00  0.00    -0.246 OA
ENDBRANCH   7   8
ENDBRANCH   6   7
ENDBRANCH   1   6
TORSDOF 5
REMARK  Name = ../refined-set-2016/1m0n/1m0n_pocket.pdb
REMARK  234 active torsions:
REMARK  status: ('A' for Active; 'I' for Inactive)
REMARK    1  A    between atoms: _1  and  _3
REMARK    2  A    between atoms: _3  and  _4
REMARK    3  A    between atoms: _3  and  _6
REMARK    4  A    between atoms: _6  and  _7
REMARK    5  A    between atoms: _10  and  _12
REMARK    6  A    between atoms: _12  and  _13
REMARK    7  A    between atoms: _12  and  _15
REMARK    8  A    between atoms: _15  and  _16
REMARK    9  A    between atoms: _18  and  _20
REMARK   10  A    between atoms: _20  and  _21
REMARK   11  A    between atoms: _23  and  _25
REMARK   12  A    between atoms: _25  and  _26
REMARK   13  A    between atoms: _25  and  _28
REMARK   14  A    between atoms: _28  and  _29
REMARK   15  A    between atoms: _29  and  _30
REMARK   16  A    between atoms: _35  and  _37
REMARK   17  A    between atoms: _37  and  _38
REMARK   18  A    between atoms: _37  and  _40
REMARK   19  A    between atoms: _40  and  _41
REMARK   20  A    between atoms: _41  and  _42
REMARK   21  A    between atoms: _44  and  _46
REMARK   22  A    between atoms: _46  and  _47
REMARK   23  A    between atoms: _46  and  _49
REMARK   24  A    between atoms: _49  and  _50
REMARK   25  A    between atoms: _52  and  _54
REMARK   26  A    between atoms: _54  and  _55
REMARK   27  A    between atoms: _54  and  _57
REMARK   28  A    between atoms: _57  and  _58
REMARK   29  A    between atoms: _60  and  _62
REMARK   30  A    between atoms: _62  and  _63
REMARK   31  A    between atoms: _62  and  _65
REMARK   32  A    between atoms: _65  and  _66
REMARK   33  A    between atoms: _69  and  _71
REMARK   34  A    between atoms: _71  and  _72
REMARK   35  A    between atoms: _74  and  _76
REMARK   36  A    between atoms: _76  and  _77
REMARK   37  A    between atoms: _80  and  _82
REMARK   38  A    between atoms: _82  and  _83
REMARK   39  A    between atoms: _82  and  _85
REMARK   40  A    between atoms: _85  and  _86
REMARK   41  A    between atoms: _86  and  _87
REMARK   42  A    between atoms: _90  and  _92
REMARK   43  A    between atoms: _92  and  _93
REMARK   44  A    between atoms: _92  and  _95
REMARK   45  A    between atoms: _95  and  _96
REMARK   46  A    between atoms: _98  and  _100
REMARK   47  A    between atoms: _100  and  _101
REMARK   48  A    between atoms: _100  and  _103
REMARK   49  A    between atoms: _103  and  _104
REMARK   50  A    between atoms: _109  and  _111
REMARK   51  A    between atoms: _111  and  _112
REMARK   52  A    between atoms: _111  and  _114
REMARK   53  A    between atoms: _114  and  _115
REMARK   54  A    between atoms: _115  and  _116
REMARK   55  A    between atoms: _119  and  _121
REMARK   56  A    between atoms: _121  and  _122
REMARK   57  A    between atoms: _121  and  _124
REMARK   58  A    between atoms: _124  and  _125
REMARK   59  A    between atoms: _127  and  _129
REMARK   60  A    between atoms: _129  and  _130
REMARK   61  A    between atoms: _129  and  _132
REMARK   62  A    between atoms: _132  and  _133
REMARK   63  A    between atoms: _143  and  _145
REMARK   64  A    between atoms: _145  and  _146
REMARK   65  A    between atoms: _145  and  _148
REMARK   66  A    between atoms: _148  and  _149
REMARK   67  A    between atoms: _154  and  _156
REMARK   68  A    between atoms: _156  and  _157
REMARK   69  A    between atoms: _159  and  _161
REMARK   70  A    between atoms: _161  and  _162
REMARK   71  A    between atoms: _161  and  _164
REMARK   72  A    between atoms: _164  and  _165
REMARK   73  A    between atoms: _165  and  _166
REMARK   74  A    between atoms: _168  and  _170
REMARK   75  A    between atoms: _170  and  _171
REMARK   76  A    between atoms: _170  and  _173
REMARK   77  A    between atoms: _173  and  _174
REMARK   78  A    between atoms: _177  and  _179
REMARK   79  A    between atoms: _179  and  _180
REMARK   80  A    between atoms: _183  and  _185
REMARK   81  A    between atoms: _185  and  _186
REMARK   82  A    between atoms: _185  and  _188
REMARK   83  A    between atoms: _188  and  _189
REMARK   84  A    between atoms: _192  and  _194
REMARK   85  A    between atoms: _194  and  _195
REMARK   86  A    between atoms: _194  and  _197
REMARK   87  A    between atoms: _197  and  _198
REMARK   88  A    between atoms: _200  and  _202
REMARK   89  A    between atoms: _202  and  _203
REMARK   90  A    between atoms: _202  and  _205
REMARK   91  A    between atoms: _205  and  _206
REMARK   92  A    between atoms: _209  and  _211
REMARK   93  A    between atoms: _211  and  _212
REMARK   94  A    between atoms: _215  and  _217
REMARK   95  A    between atoms: _217  and  _218
REMARK   96  A    between atoms: _217  and  _220
REMARK   97  A    between atoms: _220  and  _221
REMARK   98  A    between atoms: _221  and  _222
REMARK   99  A    between atoms: _226  and  _227
REMARK  100  A    between atoms: _232  and  _234
REMARK  101  A    between atoms: _234  and  _235
REMARK  102  A    between atoms: _234  and  _237
REMARK  103  A    between atoms: _237  and  _238
REMARK  104  A    between atoms: _241  and  _243
REMARK  105  A    between atoms: _243  and  _244
REMARK  106  A    between atoms: _243  and  _246
REMARK  107  A    between atoms: _246  and  _247
REMARK  108  A    between atoms: _250  and  _252
REMARK  109  A    between atoms: _252  and  _253
REMARK  110  A    between atoms: _252  and  _255
REMARK  111  A    between atoms: _255  and  _256
REMARK  112  A    between atoms: _258  and  _260
REMARK  113  A    between atoms: _260  and  _261
REMARK  114  A    between atoms: _260  and  _263
REMARK  115  A    between atoms: _263  and  _264
REMARK  116  A    between atoms: _266  and  _268
REMARK  117  A    between atoms: _268  and  _269
REMARK  118  A    between atoms: _271  and  _273
REMARK  119  A    between atoms: _273  and  _274
REMARK  120  A    between atoms: _276  and  _278
REMARK  121  A    between atoms: _278  and  _279
REMARK  122  A    between atoms: _278  and  _281
REMARK  123  A    between atoms: _281  and  _282
REMARK  124  A    between atoms: _285  and  _287
REMARK  125  A    between atoms: _287  and  _288
REMARK  126  A    between atoms: _287  and  _290
REMARK  127  A    between atoms: _290  and  _291
REMARK  128  A    between atoms: _291  and  _292
REMARK  129  A    between atoms: _295  and  _297
REMARK  130  A    between atoms: _297  and  _298
REMARK  131  A    between atoms: _301  and  _303
REMARK  132  A    between atoms: _303  and  _304
REMARK  133  A    between atoms: _303  and  _306
REMARK  134  A    between atoms: _306  and  _307
REMARK  135  A    between atoms: _307  and  _308
REMARK  136  A    between atoms: _313  and  _315
REMARK  137  A    between atoms: _315  and  _316
REMARK  138  A    between atoms: _315  and  _318
REMARK  139  A    between atoms: _318  and  _319
REMARK  140  A    between atoms: _322  and  _324
REMARK  141  A    between atoms: _324  and  _325
REMARK  142  A    between atoms: _327  and  _329
REMARK  143  A    between atoms: _329  and  _330
REMARK  144  A    between atoms: _329  and  _332
REMARK  145  A    between atoms: _332  and  _333
REMARK  146  A    between atoms: _336  and  _338
REMARK  147  A    between atoms: _338  and  _339
REMARK  148  A    between atoms: _338  and  _341
REMARK  149  A    between atoms: _341  and  _342
REMARK  150  A    between atoms: _345  and  _347
REMARK  151  A    between atoms: _347  and  _348
REMARK  152  A    between atoms: _347  and  _350
REMARK  153  A    between atoms: _350  and  _351
REMARK  154  A    between atoms: _353  and  _355
REMARK  155  A    between atoms: _355  and  _356
REMARK  156  A    between atoms: _355  and  _358
REMARK  157  A    between atoms: _358  and  _359
REMARK  158  A    between atoms: _359  and  _360
REMARK  159  A    between atoms: _360  and  _361
REMARK  160  A    between atoms: _361  and  _362
REMARK  161  A    between atoms: _367  and  _368
REMARK  162  A    between atoms: _373  and  _375
REMARK  163  A    between atoms: _375  and  _376
REMARK  164  A    between atoms: _375  and  _378
REMARK  165  A    between atoms: _378  and  _379
REMARK  166  A    between atoms: _382  and  _384
REMARK  167  A    between atoms: _384  and  _385
REMARK  168  A    between atoms: _388  and  _390
REMARK  169  A    between atoms: _390  and  _391
REMARK  170  A    between atoms: _390  and  _393
REMARK  171  A    between atoms: _393  and  _394
REMARK  172  A    between atoms: _399  and  _401
REMARK  173  A    between atoms: _401  and  _402
REMARK  174  A    between atoms: _401  and  _404
REMARK  175  A    between atoms: _407  and  _409
REMARK  176  A    between atoms: _409  and  _410
REMARK  177  A    between atoms: _409  and  _412
REMARK  178  A    between atoms: _412  and  _413
REMARK  179  A    between atoms: _413  and  _414
REMARK  180  A    between atoms: _414  and  _415
REMARK  181  A    between atoms: _424  and  _426
REMARK  182  A    between atoms: _426  and  _427
REMARK  183  A    between atoms: _426  and  _429
REMARK  184  A    between atoms: _429  and  _430
REMARK  185  A    between atoms: _435  and  _437
REMARK  186  A    between atoms: _437  and  _438
REMARK  187  A    between atoms: _437  and  _440
REMARK  188  A    between atoms: _440  and  _441
REMARK  189  A    between atoms: _447  and  _449
REMARK  190  A    between atoms: _449  and  _450
REMARK  191  A    between atoms: _449  and  _452
REMARK  192  A    between atoms: _452  and  _453
REMARK  193  A    between atoms: _455  and  _457
REMARK  194  A    between atoms: _457  and  _458
REMARK  195  A    between atoms: _457  and  _460
REMARK  196  A    between atoms: _460  and  _461
REMARK  197  A    between atoms: _461  and  _462
REMARK  198  A    between atoms: _465  and  _467
REMARK  199  A    between atoms: _467  and  _468
REMARK  200  A    between atoms: _467  and  _470
REMARK  201  A    between atoms: _470  and  _471
REMARK  202  A    between atoms: _473  and  _475
REMARK  203  A    between atoms: _475  and  _476
REMARK  204  A    between atoms: _475  and  _478
REMARK  205  A    between atoms: _478  and  _479
REMARK  206  A    between atoms: _479  and  _480
REMARK  207  A    between atoms: _483  and  _485
REMARK  208  A    between atoms: _485  and  _486
REMARK  209  A    between atoms: _485  and  _488
REMARK  210  A    between atoms: _488  and  _489
REMARK  211  A    between atoms: _492  and  _494
REMARK  212  A    between atoms: _494  and  _495
REMARK  213  A    between atoms: _494  and  _497
REMARK  214  A    between atoms: _497  and  _498
REMARK  215  A    between atoms: _504  and  _506
REMARK  216  A    between atoms: _506  and  _507
REMARK  217  A    between atoms: _506  and  _509
REMARK  218  A    between atoms: _509  and  _510
REMARK  219  A    between atoms: _515  and  _516
REMARK  220  A    between atoms: _518  and  _520
REMARK  221  A    between atoms: _520  and  _521
REMARK  222  A    between atoms: _520  and  _523
REMARK  223  A    between atoms: _523  and  _524
REMARK  224  A    between atoms: _527  and  _529
REMARK  225  A    between atoms: _529  and  _530
REMARK  226  A    between atoms: _529  and  _532
REMARK  227  A    between atoms: _532  and  _533
REMARK  228  A    between atoms: _536  and  _538
REMARK  229  A    between atoms: _538  and  _539
REMARK  230  A    between atoms: _538  and  _541
REMARK  231  A    between atoms: _541  and  _542
REMARK  232  A    between atoms: _547  and  _549
REMARK  233  A    between atoms: _549  and  _550
REMARK  234  A    between atoms: _549  and  _552
REMARK                            x       y       z     vdW  Elec       q    Type
REMARK                         _______ _______ _______ _____ _____    ______ ____
ROOT
ATOM      1  C   TYR A   3      20.627  49.268  22.595  0.00  0.00    +0.241 C 
ATOM      2  N   THR A   4      20.423  47.985  22.276  0.00  0.00    -0.295 N 
ATOM      3  H   THR A   4      20.516  47.277  23.032  0.00  0.00    +0.150 HD
ATOM      4  O   TYR A   3      20.509  50.245  21.795  0.00  0.00    -0.273 OA
ENDROOT
BRANCH   2   5
ATOM      5  CA  THR A   4      20.073  47.503  20.919  0.00  0.00    +0.176 C 
BRANCH   5   6
ATOM      6  C   THR A   4      18.847  46.636  20.859  0.00  0.00    +0.243 C 
ATOM      7  O   THR A   4      18.316  46.205  21.888  0.00  0.00    -0.273 OA
ATOM      8  N   THR A   5      18.407  46.354  19.647  0.00  0.00    -0.295 N 
ATOM      9  H   THR A   5      18.907  46.733  18.818  0.00  0.00    +0.150 HD
BRANCH   8  10
ATOM     10  CA  THR A   5      17.251  45.533  19.460  0.00  0.00    +0.176 C 
BRANCH  10  11
ATOM     11  C   THR A   5      17.522  44.165  19.997  0.00  0.00    +0.243 C 
ATOM     12  O   THR A   5      16.703  43.579  20.680  0.00  0.00    -0.273 OA
ATOM     13  N   HIS A   6      18.671  43.633  19.638  0.00  0.00    -0.297 N 
ATOM     14  H   HIS A   6      19.363  44.205  19.114  0.00  0.00    +0.150 HD
BRANCH  13  15
ATOM     15  CA  HIS A   6      18.976  42.269  19.964  0.00  0.00    +0.155 C 
BRANCH  15  16
ATOM     16  C   HIS A   6      19.868  41.949  21.192  0.00  0.00    +0.241 C 
ATOM     17  N   VAL A   7      20.289  42.978  21.905  0.00  0.00    -0.298 N 
ATOM     18  H   VAL A   7      20.073  43.950  21.603  0.00  0.00    +0.150 HD
ATOM     19  O   HIS A   6      20.190  40.782  21.449  0.00  0.00    -0.273 OA
BRANCH  17  20
ATOM     20  CA  VAL A   7      21.028  42.747  23.070  0.00  0.00    +0.137 C 
BRANCH  20  21
ATOM     21  CB  VAL A   7      21.311  44.079  23.882  0.00  0.00    +0.026 C 
ATOM     22  CG2 VAL A   7      22.080  43.748  25.154  0.00  0.00    +0.002 C 
ATOM     23  CG1 VAL A   7      20.037  44.867  24.251  0.00  0.00    +0.002 C 
ENDBRANCH  20  21
BRANCH  20  24
ATOM     24  C   VAL A   7      20.121  41.854  23.925  0.00  0.00    +0.227 C 
ATOM     25  O   VAL A   7      18.905  42.078  24.056  0.00  0.00    -0.286 OA
ENDBRANCH  20  24
ENDBRANCH  17  20
ENDBRANCH  15  16
BRANCH  15  26
ATOM     26  CB  HIS A   6      19.494  41.536  18.666  0.00  0.00    +0.076 C 
BRANCH  26  27
ATOM     27  CG  HIS A   6      18.558  41.657  17.473  0.00  0.00    +0.082 A 
ATOM     28  ND1 HIS A   6      17.420  40.882  17.318  0.00  0.00    -0.227 NA
ATOM     29  CE1 HIS A   6      16.823  41.191  16.179  0.00  0.00    +0.199 A 
ATOM     30  NE2 HIS A   6      17.506  42.171  15.609  0.00  0.00    -0.221 NA
ATOM     31  CD2 HIS A   6      18.588  42.485  16.398  0.00  0.00    +0.115 A 
ENDBRANCH  26  27
ENDBRANCH  15  26
ENDBRANCH  13  15
ENDBRANCH  10  11
BRANCH  10  32
ATOM     32  CB  THR A   5      16.888  45.423  17.938  0.00  0.00    +0.137 C 
ATOM     33  CG2 THR A   5      15.527  44.603  17.718  0.00  0.00    +0.034 C 
BRANCH  32  34
ATOM     34  OG1 THR A   5      16.721  46.756  17.417  0.00  0.00    -0.382 OA
ATOM     35  HG1 THR A   5      17.565  47.261  17.530  0.00  0.00    +0.210 HD
ENDBRANCH  32  34
ENDBRANCH  10  32
ENDBRANCH   8  10
ENDBRANCH   5   6
BRANCH   5  36
ATOM     36  CB  THR A   4      21.262  46.743  20.296  0.00  0.00    +0.137 C 
ATOM     37  CG2 THR A   4      22.519  47.420  20.675  0.00  0.00    +0.034 C 
BRANCH  36  38
ATOM     38  OG1 THR A   4      21.316  45.357  20.726  0.00  0.00    -0.382 OA
ATOM     39  HG1 THR A   4      22.092  44.911  20.302  0.00  0.00    +0.210 HD
ENDBRANCH  36  38
ENDBRANCH   5  36
ENDBRANCH   2   5
BRANCH   1  40
ATOM     40  CA  TYR A   3      21.039  49.501  24.057  0.00  0.00    +0.153 C 
BRANCH  40  43
ATOM     41  C   PHE A   2      23.503  49.450  24.463  0.00  0.00    +0.241 C 
ATOM     42  O   PHE A   2      23.519  48.251  24.536  0.00  0.00    -0.273 OA
ATOM     43  N   TYR A   3      22.396  50.121  24.195  0.00  0.00    -0.297 N 
ATOM     44  H   TYR A   3      22.472  51.151  24.071  0.00  0.00    +0.150 HD
BRANCH  41  45
ATOM     45  CA  PHE A   2      24.764  50.294  24.775  0.00  0.00    +0.153 C 
BRANCH  45  47
ATOM     46  C   LEU A   1      25.096  52.136  26.275  0.00  0.00    +0.238 C 
ATOM     47  N   PHE A   2      24.537  50.975  26.028  0.00  0.00    -0.297 N 
ATOM     48  H   PHE A   2      23.922  50.539  26.744  0.00  0.00    +0.150 HD
ATOM     49  O   LEU A   1      25.915  52.624  25.549  0.00  0.00    -0.274 OA
BRANCH  46  50
ATOM     50  CA  LEU A   1      24.672  52.849  27.538  0.00  0.00    +0.145 C 
BRANCH  50  51
ATOM     51  N   LEU A   1      25.801  53.191  28.314  0.00  0.00    -0.238 NA
ATOM     52  H   LEU A   1      26.626  53.625  27.852  0.00  0.00    +0.142 HD
ENDBRANCH  50  51
BRANCH  50  53
ATOM     53  CB  LEU A   1      24.031  54.151  27.137  0.00  0.00    +0.026 C 
BRANCH  53  54
ATOM     54  CG  LEU A   1      23.022  54.111  25.991  0.00  0.00    +0.002 C 
ATOM     55  CD2 LEU A   1      21.764  53.451  26.495  0.00  0.00    +0.000 C 
ATOM     56  CD1 LEU A   1      22.702  55.563  25.559  0.00  0.00    +0.000 C 
ENDBRANCH  53  54
ENDBRANCH  50  53
ENDBRANCH  46  50
ENDBRANCH  45  47
BRANCH  45  57
ATOM     57  CB  PHE A   2      26.054  49.495  24.752  0.00  0.00    +0.055 C 
BRANCH  57  58
ATOM     58  CG  PHE A   2      26.520  49.194  23.350  0.00  0.00    -0.020 A 
ATOM     59  CD2 PHE A   2      27.441  50.035  22.706  0.00  0.00    -0.004 A 
ATOM     60  CE2 PHE A   2      27.819  49.789  21.280  0.00  0.00    -0.000 A 
ATOM     61  CZ  PHE A   2      27.234  48.716  20.552  0.00  0.00    -0.000 A 
ATOM     62  CE1 PHE A   2      26.299  47.856  21.205  0.00  0.00    -0.000 A 
ATOM     63  CD1 PHE A   2      25.912  48.137  22.599  0.00  0.00    -0.004 A 
ENDBRANCH  57  58
ENDBRANCH  45  57
ENDBRANCH  41  45
ENDBRANCH  40  43
BRANCH  40  64
ATOM     64  CB  TYR A   3      20.011  50.444  24.774  0.00  0.00    +0.055 C 
BRANCH  64  65
ATOM     65  CG  TYR A   3      18.716  49.809  25.327  0.00  0.00    -0.020 A 
ATOM     66  CD2 TYR A   3      18.571  49.411  26.714  0.00  0.00    -0.001 A 
ATOM     67  CE2 TYR A   3      17.277  48.917  27.192  0.00  0.00    +0.036 A 
ATOM     68  CZ  TYR A   3      16.207  48.868  26.256  0.00  0.00    +0.134 A 
ATOM     69  CE1 TYR A   3      16.363  49.296  24.971  0.00  0.00    +0.036 A 
ATOM     70  CD1 TYR A   3      17.585  49.766  24.523  0.00  0.00    -0.001 A 
BRANCH  68  71
ATOM     71  OH  TYR A   3      14.953  48.446  26.530  0.00  0.00    -0.506 OA
ATOM     72  HH  TYR A   3      14.562  49.015  27.240  0.00  0.00    +0.292 HD
ENDBRANCH  68  71
ENDBRANCH  64  65
ENDBRANCH  40  64
ENDBRANCH   1  40
TORSDOF 28
REMARK  Name = ../refined-set-2016/1m0n/1m0n_pocket.pdb
REMARK  234 active torsions:
REMARK  status: ('A' for Active; 'I' for Inactive)
REMARK    1  A    between atoms: _1  and  _3
REMARK    2  A    between atoms: _3  and  _4
REMARK    3  A    between atoms: _3  and  _6
REMARK    4  A    between atoms: _6  and  _7
REMARK    5  A    between atoms: _10  and  _12
REMARK    6  A    between atoms: _12  and  _13
REMARK    7  A    between atoms: _12  and  _15
REMARK    8  A    between atoms: _15  and  _16
REMARK    9  A    between atoms: _18  and  _20
REMARK   10  A    between atoms: _20  and  _21
REMARK   11  A    between atoms: _23  and  _25
REMARK   12  A    between atoms: _25  and  _26
REMARK   13  A    between atoms: _25  and  _28
REMARK   14  A    between atoms: _28  and  _29
REMARK   15  A    between atoms: _29  and  _30
REMARK   16  A    between atoms: _35  and  _37
REMARK   17  A    between atoms: _37  and  _38
REMARK   18  A    between atoms: _37  and  _40
REMARK   19  A    between atoms: _40  and  _41
REMARK   20  A    between atoms: _41  and  _42
REMARK   21  A    between atoms: _44  and  _46
REMARK   22  A    between atoms: _46  and  _47
REMARK   23  A    between atoms: _46  and  _49
REMARK   24  A    between atoms: _49  and  _50
REMARK   25  A    between atoms: _52  and  _54
REMARK   26  A    between atoms: _54  and  _55
REMARK   27  A    between atoms: _54  and  _57
REMARK   28  A    between atoms: _57  and  _58
REMARK   29  A    between atoms: _60  and  _62
REMARK   30  A    between atoms: _62  and  _63
REMARK   31  A    between atoms: _62  and  _65
REMARK   32  A    between atoms: _65  and  _66
REMARK   33  A    between atoms: _69  and  _71
REMARK   34  A    between atoms: _71  and  _72
REMARK   35  A    between atoms: _74  and  _76
REMARK   36  A    between atoms: _76  and  _77
REMARK   37  A    between atoms: _80  and  _82
REMARK   38  A    between atoms: _82  and  _83
REMARK   39  A    between atoms: _82  and  _85
REMARK   40  A    between atoms: _85  and  _86
REMARK   41  A    between atoms: _86  and  _87
REMARK   42  A    between atoms: _90  and  _92
REMARK   43  A    between atoms: _92  and  _93
REMARK   44  A    between atoms: _92  and  _95
REMARK   45  A    between atoms: _95  and  _96
REMARK   46  A    between atoms: _98  and  _100
REMARK   47  A    between atoms: _100  and  _101
REMARK   48  A    between atoms: _100  and  _103
REMARK   49  A    between atoms: _103  and  _104
REMARK   50  A    between atoms: _109  and  _111
REMARK   51  A    between atoms: _111  and  _112
REMARK   52  A    between atoms: _111  and  _114
REMARK   53  A    between atoms: _114  and  _115
REMARK   54  A    between atoms: _115  and  _116
REMARK   55  A    between atoms: _119  and  _121
REMARK   56  A    between atoms: _121  and  _122
REMARK   57  A    between atoms: _121  and  _124
REMARK   58  A    between atoms: _124  and  _125
REMARK   59  A    between atoms: _127  and  _129
REMARK   60  A    between atoms: _129  and  _130
REMARK   61  A    between atoms: _129  and  _132
REMARK   62  A    between atoms: _132  and  _133
REMARK   63  A    between atoms: _143  and  _145
REMARK   64  A    between atoms: _145  and  _146
REMARK   65  A    between atoms: _145  and  _148
REMARK   66  A    between atoms: _148  and  _149
REMARK   67  A    between atoms: _154  and  _156
REMARK   68  A    between atoms: _156  and  _157
REMARK   69  A    between atoms: _159  and  _161
REMARK   70  A    between atoms: _161  and  _162
REMARK   71  A    between atoms: _161  and  _164
REMARK   72  A    between atoms: _164  and  _165
REMARK   73  A    between atoms: _165  and  _166
REMARK   74  A    between atoms: _168  and  _170
REMARK   75  A    between atoms: _170  and  _171
REMARK   76  A    between atoms: _170  and  _173
REMARK   77  A    between atoms: _173  and  _174
REMARK   78  A    between atoms: _177  and  _179
REMARK   79  A    between atoms: _179  and  _180
REMARK   80  A    between atoms: _183  and  _185
REMARK   81  A    between atoms: _185  and  _186
REMARK   82  A    between atoms: _185  and  _188
REMARK   83  A    between atoms: _188  and  _189
REMARK   84  A    between atoms: _192  and  _194
REMARK   85  A    between atoms: _194  and  _195
REMARK   86  A    between atoms: _194  and  _197
REMARK   87  A    between atoms: _197  and  _198
REMARK   88  A    between atoms: _200  and  _202
REMARK   89  A    between atoms: _202  and  _203
REMARK   90  A    between atoms: _202  and  _205
REMARK   91  A    between atoms: _205  and  _206
REMARK   92  A    between atoms: _209  and  _211
REMARK   93  A    between atoms: _211  and  _212
REMARK   94  A    between atoms: _215  and  _217
REMARK   95  A    between atoms: _217  and  _218
REMARK   96  A    between atoms: _217  and  _220
REMARK   97  A    between atoms: _220  and  _221
REMARK   98  A    between atoms: _221  and  _222
REMARK   99  A    between atoms: _226  and  _227
REMARK  100  A    between atoms: _232  and  _234
REMARK  101  A    between atoms: _234  and  _235
REMARK  102  A    between atoms: _234  and  _237
REMARK  103  A    between atoms: _237  and  _238
REMARK  104  A    between atoms: _241  and  _243
REMARK  105  A    between atoms: _243  and  _244
REMARK  106  A    between atoms: _243  and  _246
REMARK  107  A    between atoms: _246  and  _247
REMARK  108  A    between atoms: _250  and  _252
REMARK  109  A    between atoms: _252  and  _253
REMARK  110  A    between atoms: _252  and  _255
REMARK  111  A    between atoms: _255  and  _256
REMARK  112  A    between atoms: _258  and  _260
REMARK  113  A    between atoms: _260  and  _261
REMARK  114  A    between atoms: _260  and  _263
REMARK  115  A    between atoms: _263  and  _264
REMARK  116  A    between atoms: _266  and  _268
REMARK  117  A    between atoms: _268  and  _269
REMARK  118  A    between atoms: _271  and  _273
REMARK  119  A    between atoms: _273  and  _274
REMARK  120  A    between atoms: _276  and  _278
REMARK  121  A    between atoms: _278  and  _279
REMARK  122  A    between atoms: _278  and  _281
REMARK  123  A    between atoms: _281  and  _282
REMARK  124  A    between atoms: _285  and  _287
REMARK  125  A    between atoms: _287  and  _288
REMARK  126  A    between atoms: _287  and  _290
REMARK  127  A    between atoms: _290  and  _291
REMARK  128  A    between atoms: _291  and  _292
REMARK  129  A    between atoms: _295  and  _297
REMARK  130  A    between atoms: _297  and  _298
REMARK  131  A    between atoms: _301  and  _303
REMARK  132  A    between atoms: _303  and  _304
REMARK  133  A    between atoms: _303  and  _306
REMARK  134  A    between atoms: _306  and  _307
REMARK  135  A    between atoms: _307  and  _308
REMARK  136  A    between atoms: _313  and  _315
REMARK  137  A    between atoms: _315  and  _316
REMARK  138  A    between atoms: _315  and  _318
REMARK  139  A    between atoms: _318  and  _319
REMARK  140  A    between atoms: _322  and  _324
REMARK  141  A    between atoms: _324  and  _325
REMARK  142  A    between atoms: _327  and  _329
REMARK  143  A    between atoms: _329  and  _330
REMARK  144  A    between atoms: _329  and  _332
REMARK  145  A    between atoms: _332  and  _333
REMARK  146  A    between atoms: _336  and  _338
REMARK  147  A    between atoms: _338  and  _339
REMARK  148  A    between atoms: _338  and  _341
REMARK  149  A    between atoms: _341  and  _342
REMARK  150  A    between atoms: _345  and  _347
REMARK  151  A    between atoms: _347  and  _348
REMARK  152  A    between atoms: _347  and  _350
REMARK  153  A    between atoms: _350  and  _351
REMARK  154  A    between atoms: _353  and  _355
REMARK  155  A    between atoms: _355  and  _356
REMARK  156  A    between atoms: _355  and  _358
REMARK  157  A    between atoms: _358  and  _359
REMARK  158  A    between atoms: _359  and  _360
REMARK  159  A    between atoms: _360  and  _361
REMARK  160  A    between atoms: _361  and  _362
REMARK  161  A    between atoms: _367  and  _368
REMARK  162  A    between atoms: _373  and  _375
REMARK  163  A    between atoms: _375  and  _376
REMARK  164  A    between atoms: _375  and  _378
REMARK  165  A    between atoms: _378  and  _379
REMARK  166  A    between atoms: _382  and  _384
REMARK  167  A    between atoms: _384  and  _385
REMARK  168  A    between atoms: _388  and  _390
REMARK  169  A    between atoms: _390  and  _391
REMARK  170  A    between atoms: _390  and  _393
REMARK  171  A    between atoms: _393  and  _394
REMARK  172  A    between atoms: _399  and  _401
REMARK  173  A    between atoms: _401  and  _402
REMARK  174  A    between atoms: _401  and  _404
REMARK  175  A    between atoms: _407  and  _409
REMARK  176  A    between atoms: _409  and  _410
REMARK  177  A    between atoms: _409  and  _412
REMARK  178  A    between atoms: _412  and  _413
REMARK  179  A    between atoms: _413  and  _414
REMARK  180  A    between atoms: _414  and  _415
REMARK  181  A    between atoms: _424  and  _426
REMARK  182  A    between atoms: _426  and  _427
REMARK  183  A    between atoms: _426  and  _429
REMARK  184  A    between atoms: _429  and  _430
REMARK  185  A    between atoms: _435  and  _437
REMARK  186  A    between atoms: _437  and  _438
REMARK  187  A    between atoms: _437  and  _440
REMARK  188  A    between atoms: _440  and  _441
REMARK  189  A    between atoms: _447  and  _449
REMARK  190  A    between atoms: _449  and  _450
REMARK  191  A    between atoms: _449  and  _452
REMARK  192  A    between atoms: _452  and  _453
REMARK  193  A    between atoms: _455  and  _457
REMARK  194  A    between atoms: _457  and  _458
REMARK  195  A    between atoms: _457  and  _460
REMARK  196  A    between atoms: _460  and  _461
REMARK  197  A    between atoms: _461  and  _462
REMARK  198  A    between atoms: _465  and  _467
REMARK  199  A    between atoms: _467  and  _468
REMARK  200  A    between atoms: _467  and  _470
REMARK  201  A    between atoms: _470  and  _471
REMARK  202  A    between atoms: _473  and  _475
REMARK  203  A    between atoms: _475  and  _476
REMARK  204  A    between atoms: _475  and  _478
REMARK  205  A    between atoms: _478  and  _479
REMARK  206  A    between atoms: _479  and  _480
REMARK  207  A    between atoms: _483  and  _485
REMARK  208  A    between atoms: _485  and  _486
REMARK  209  A    between atoms: _485  and  _488
REMARK  210  A    between atoms: _488  and  _489
REMARK  211  A    between atoms: _492  and  _494
REMARK  212  A    between atoms: _494  and  _495
REMARK  213  A    between atoms: _494  and  _497
REMARK  214  A    between atoms: _497  and  _498
REMARK  215  A    between atoms: _504  and  _506
REMARK  216  A    between atoms: _506  and  _507
REMARK  217  A    between atoms: _506  and  _509
REMARK  218  A    between atoms: _509  and  _510
REMARK  219  A    between atoms: _515  and  _516
REMARK  220  A    between atoms: _518  and  _520
REMARK  221  A    between atoms: _520  and  _521
REMARK  222  A    between atoms: _520  and  _523
REMARK  223  A    between atoms: _523  and  _524
REMARK  224  A    between atoms: _527  and  _529
REMARK  225  A    between atoms: _529  and  _530
REMARK  226  A    between atoms: _529  and  _532
REMARK  227  A    between atoms: _532  and  _533
REMARK  228  A    between atoms: _536  and  _538
REMARK  229  A    between atoms: _538  and  _539
REMARK  230  A    between atoms: _538  and  _541
REMARK  231  A    between atoms: _541  and  _542
REMARK  232  A    between atoms: _547  and  _549
REMARK  233  A    between atoms: _549  and  _550
REMARK  234  A    between atoms: _549  and  _552
REMARK                            x       y       z     vdW  Elec       q    Type
REMARK                         _______ _______ _______ _____ _____    ______ ____
ROOT
ATOM      1  O   HOH     1       7.818  47.793  14.859  0.00  0.00    +0.000 OA
ENDROOT
TORSDOF 0
REMARK  Name = ../refined-set-2016/1m0n/1m0n_pocket.pdb
REMARK  234 active torsions:
REMARK  status: ('A' for Active; 'I' for Inactive)
REMARK    1  A    between atoms: _1  and  _3
REMARK    2  A    between atoms: _3  and  _4
REMARK    3  A    between atoms: _3  and  _6
REMARK    4  A    between atoms: _6  and  _7
REMARK    5  A    between atoms: _10  and  _12
REMARK    6  A    between atoms: _12  and  _13
REMARK    7  A    between atoms: _12  and  _15
REMARK    8  A    between atoms: _15  and  _16
REMARK    9  A    between atoms: _18  and  _20
REMARK   10  A    between atoms: _20  and  _21
REMARK   11  A    between atoms: _23  and  _25
REMARK   12  A    between atoms: _25  and  _26
REMARK   13  A    between atoms: _25  and  _28
REMARK   14  A    between atoms: _28  and  _29
REMARK   15  A    between atoms: _29  and  _30
REMARK   16  A    between atoms: _35  and  _37
REMARK   17  A    between atoms: _37  and  _38
REMARK   18  A    between atoms: _37  and  _40
REMARK   19  A    between atoms: _40  and  _41
REMARK   20  A    between atoms: _41  and  _42
REMARK   21  A    between atoms: _44  and  _46
REMARK   22  A    between atoms: _46  and  _47
REMARK   23  A    between atoms: _46  and  _49
REMARK   24  A    between atoms: _49  and  _50
REMARK   25  A    between atoms: _52  and  _54
REMARK   26  A    between atoms: _54  and  _55
REMARK   27  A    between atoms: _54  and  _57
REMARK   28  A    between atoms: _57  and  _58
REMARK   29  A    between atoms: _60  and  _62
REMARK   30  A    between atoms: _62  and  _63
REMARK   31  A    between atoms: _62  and  _65
REMARK   32  A    between atoms: _65  and  _66
REMARK   33  A    between atoms: _69  and  _71
REMARK   34  A    between atoms: _71  and  _72
REMARK   35  A    between atoms: _74  and  _76
REMARK   36  A    between atoms: _76  and  _77
REMARK   37  A    between atoms: _80  and  _82
REMARK   38  A    between atoms: _82  and  _83
REMARK   39  A    between atoms: _82  and  _85
REMARK   40  A    between atoms: _85  and  _86
REMARK   41  A    between atoms: _86  and  _87
REMARK   42  A    between atoms: _90  and  _92
REMARK   43  A    between atoms: _92  and  _93
REMARK   44  A    between atoms: _92  and  _95
REMARK   45  A    between atoms: _95  and  _96
REMARK   46  A    between atoms: _98  and  _100
REMARK   47  A    between atoms: _100  and  _101
REMARK   48  A    between atoms: _100  and  _103
REMARK   49  A    between atoms: _103  and  _104
REMARK   50  A    between atoms: _109  and  _111
REMARK   51  A    between atoms: _111  and  _112
REMARK   52  A    between atoms: _111  and  _114
REMARK   53  A    between atoms: _114  and  _115
REMARK   54  A    between atoms: _115  and  _116
REMARK   55  A    between atoms: _119  and  _121
REMARK   56  A    between atoms: _121  and  _122
REMARK   57  A    between atoms: _121  and  _124
REMARK   58  A    between atoms: _124  and  _125
REMARK   59  A    between atoms: _127  and  _129
REMARK   60  A    between atoms: _129  and  _130
REMARK   61  A    between atoms: _129  and  _132
REMARK   62  A    between atoms: _132  and  _133
REMARK   63  A    between atoms: _143  and  _145
REMARK   64  A    between atoms: _145  and  _146
REMARK   65  A    between atoms: _145  and  _148
REMARK   66  A    between atoms: _148  and  _149
REMARK   67  A    between atoms: _154  and  _156
REMARK   68  A    between atoms: _156  and  _157
REMARK   69  A    between atoms: _159  and  _161
REMARK   70  A    between atoms: _161  and  _162
REMARK   71  A    between atoms: _161  and  _164
REMARK   72  A    between atoms: _164  and  _165
REMARK   73  A    between atoms: _165  and  _166
REMARK   74  A    between atoms: _168  and  _170
REMARK   75  A    between atoms: _170  and  _171
REMARK   76  A    between atoms: _170  and  _173
REMARK   77  A    between atoms: _173  and  _174
REMARK   78  A    between atoms: _177  and  _179
REMARK   79  A    between atoms: _179  and  _180
REMARK   80  A    between atoms: _183  and  _185
REMARK   81  A    between atoms: _185  and  _186
REMARK   82  A    between atoms: _185  and  _188
REMARK   83  A    between atoms: _188  and  _189
REMARK   84  A    between atoms: _192  and  _194
REMARK   85  A    between atoms: _194  and  _195
REMARK   86  A    between atoms: _194  and  _197
REMARK   87  A    between atoms: _197  and  _198
REMARK   88  A    between atoms: _200  and  _202
REMARK   89  A    between atoms: _202  and  _203
REMARK   90  A    between atoms: _202  and  _205
REMARK   91  A    between atoms: _205  and  _206
REMARK   92  A    between atoms: _209  and  _211
REMARK   93  A    between atoms: _211  and  _212
REMARK   94  A    between atoms: _215  and  _217
REMARK   95  A    between atoms: _217  and  _218
REMARK   96  A    between atoms: _217  and  _220
REMARK   97  A    between atoms: _220  and  _221
REMARK   98  A    between atoms: _221  and  _222
REMARK   99  A    between atoms: _226  and  _227
REMARK  100  A    between atoms: _232  and  _234
REMARK  101  A    between atoms: _234  and  _235
REMARK  102  A    between atoms: _234  and  _237
REMARK  103  A    between atoms: _237  and  _238
REMARK  104  A    between atoms: _241  and  _243
REMARK  105  A    between atoms: _243  and  _244
REMARK  106  A    between atoms: _243  and  _246
REMARK  107  A    between atoms: _246  and  _247
REMARK  108  A    between atoms: _250  and  _252
REMARK  109  A    between atoms: _252  and  _253
REMARK  110  A    between atoms: _252  and  _255
REMARK  111  A    between atoms: _255  and  _256
REMARK  112  A    between atoms: _258  and  _260
REMARK  113  A    between atoms: _260  and  _261
REMARK  114  A    between atoms: _260  and  _263
REMARK  115  A    between atoms: _263  and  _264
REMARK  116  A    between atoms: _266  and  _268
REMARK  117  A    between atoms: _268  and  _269
REMARK  118  A    between atoms: _271  and  _273
REMARK  119  A    between atoms: _273  and  _274
REMARK  120  A    between atoms: _276  and  _278
REMARK  121  A    between atoms: _278  and  _279
REMARK  122  A    between atoms: _278  and  _281
REMARK  123  A    between atoms: _281  and  _282
REMARK  124  A    between atoms: _285  and  _287
REMARK  125  A    between atoms: _287  and  _288
REMARK  126  A    between atoms: _287  and  _290
REMARK  127  A    between atoms: _290  and  _291
REMARK  128  A    between atoms: _291  and  _292
REMARK  129  A    between atoms: _295  and  _297
REMARK  130  A    between atoms: _297  and  _298
REMARK  131  A    between atoms: _301  and  _303
REMARK  132  A    between atoms: _303  and  _304
REMARK  133  A    between atoms: _303  and  _306
REMARK  134  A    between atoms: _306  and  _307
REMARK  135  A    between atoms: _307  and  _308
REMARK  136  A    between atoms: _313  and  _315
REMARK  137  A    between atoms: _315  and  _316
REMARK  138  A    between atoms: _315  and  _318
REMARK  139  A    between atoms: _318  and  _319
REMARK  140  A    between atoms: _322  and  _324
REMARK  141  A    between atoms: _324  and  _325
REMARK  142  A    between atoms: _327  and  _329
REMARK  143  A    between atoms: _329  and  _330
REMARK  144  A    between atoms: _329  and  _332
REMARK  145  A    between atoms: _332  and  _333
REMARK  146  A    between atoms: _336  and  _338
REMARK  147  A    between atoms: _338  and  _339
REMARK  148  A    between atoms: _338  and  _341
REMARK  149  A    between atoms: _341  and  _342
REMARK  150  A    between atoms: _345  and  _347
REMARK  151  A    between atoms: _347  and  _348
REMARK  152  A    between atoms: _347  and  _350
REMARK  153  A    between atoms: _350  and  _351
REMARK  154  A    between atoms: _353  and  _355
REMARK  155  A    between atoms: _355  and  _356
REMARK  156  A    between atoms: _355  and  _358
REMARK  157  A    between atoms: _358  and  _359
REMARK  158  A    between atoms: _359  and  _360
REMARK  159  A    between atoms: _360  and  _361
REMARK  160  A    between atoms: _361  and  _362
REMARK  161  A    between atoms: _367  and  _368
REMARK  162  A    between atoms: _373  and  _375
REMARK  163  A    between atoms: _375  and  _376
REMARK  164  A    between atoms: _375  and  _378
REMARK  165  A    between atoms: _378  and  _379
REMARK  166  A    between atoms: _382  and  _384
REMARK  167  A    between atoms: _384  and  _385
REMARK  168  A    between atoms: _388  and  _390
REMARK  169  A    between atoms: _390  and  _391
REMARK  170  A    between atoms: _390  and  _393
REMARK  171  A    between atoms: _393  and  _394
REMARK  172  A    between atoms: _399  and  _401
REMARK  173  A    between atoms: _401  and  _402
REMARK  174  A    between atoms: _401  and  _404
REMARK  175  A    between atoms: _407  and  _409
REMARK  176  A    between atoms: _409  and  _410
REMARK  177  A    between atoms: _409  and  _412
REMARK  178  A    between atoms: _412  and  _413
REMARK  179  A    between atoms: _413  and  _414
REMARK  180  A    between atoms: _414  and  _415
REMARK  181  A    between atoms: _424  and  _426
REMARK  182  A    between atoms: _426  and  _427
REMARK  183  A    between atoms: _426  and  _429
REMARK  184  A    between atoms: _429  and  _430
REMARK  185  A    between atoms: _435  and  _437
REMARK  186  A    between atoms: _437  and  _438
REMARK  187  A    between atoms: _437  and  _440
REMARK  188  A    between atoms: _440  and  _441
REMARK  189  A    between atoms: _447  and  _449
REMARK  190  A    between atoms: _449  and  _450
REMARK  191  A    between atoms: _449  and  _452
REMARK  192  A    between atoms: _452  and  _453
REMARK  193  A    between atoms: _455  and  _457
REMARK  194  A    between atoms: _457  and  _458
REMARK  195  A    between atoms: _457  and  _460
REMARK  196  A    between atoms: _460  and  _461
REMARK  197  A    between atoms: _461  and  _462
REMARK  198  A    between atoms: _465  and  _467
REMARK  199  A    between atoms: _467  and  _468
REMARK  200  A    between atoms: _467  and  _470
REMARK  201  A    between atoms: _470  and  _471
REMARK  202  A    between atoms: _473  and  _475
REMARK  203  A    between atoms: _475  and  _476
REMARK  204  A    between atoms: _475  and  _478
REMARK  205  A    between atoms: _478  and  _479
REMARK  206  A    between atoms: _479  and  _480
REMARK  207  A    between atoms: _483  and  _485
REMARK  208  A    between atoms: _485  and  _486
REMARK  209  A    between atoms: _485  and  _488
REMARK  210  A    between atoms: _488  and  _489
REMARK  211  A    between atoms: _492  and  _494
REMARK  212  A    between atoms: _494  and  _495
REMARK  213  A    between atoms: _494  and  _497
REMARK  214  A    between atoms: _497  and  _498
REMARK  215  A    between atoms: _504  and  _506
REMARK  216  A    between atoms: _506  and  _507
REMARK  217  A    between atoms: _506  and  _509
REMARK  218  A    between atoms: _509  and  _510
REMARK  219  A    between atoms: _515  and  _516
REMARK  220  A    between atoms: _518  and  _520
REMARK  221  A    between atoms: _520  and  _521
REMARK  222  A    between atoms: _520  and  _523
REMARK  223  A    between atoms: _523  and  _524
REMARK  224  A    between atoms: _527  and  _529
REMARK  225  A    between atoms: _529  and  _530
REMARK  226  A    between atoms: _529  and  _532
REMARK  227  A    between atoms: _532  and  _533
REMARK  228  A    between atoms: _536  and  _538
REMARK  229  A    between atoms: _538  and  _539
REMARK  230  A    between atoms: _538  and  _541
REMARK  231  A    between atoms: _541  and  _542
REMARK  232  A    between atoms: _547  and  _549
REMARK  233  A    between atoms: _549  and  _550
REMARK  234  A    between atoms: _549  and  _552
REMARK                            x       y       z     vdW  Elec       q    Type
REMARK                         _______ _______ _______ _____ _____    ______ ____
ROOT
ATOM      1  O   HOH     1      11.768  55.318  13.623  0.00  0.00    +0.000 OA
ENDROOT
TORSDOF 0
REMARK  Name = ../refined-set-2016/1m0n/1m0n_pocket.pdb
REMARK  234 active torsions:
REMARK  status: ('A' for Active; 'I' for Inactive)
REMARK    1  A    between atoms: _1  and  _3
REMARK    2  A    between atoms: _3  and  _4
REMARK    3  A    between atoms: _3  and  _6
REMARK    4  A    between atoms: _6  and  _7
REMARK    5  A    between atoms: _10  and  _12
REMARK    6  A    between atoms: _12  and  _13
REMARK    7  A    between atoms: _12  and  _15
REMARK    8  A    between atoms: _15  and  _16
REMARK    9  A    between atoms: _18  and  _20
REMARK   10  A    between atoms: _20  and  _21
REMARK   11  A    between atoms: _23  and  _25
REMARK   12  A    between atoms: _25  and  _26
REMARK   13  A    between atoms: _25  and  _28
REMARK   14  A    between atoms: _28  and  _29
REMARK   15  A    between atoms: _29  and  _30
REMARK   16  A    between atoms: _35  and  _37
REMARK   17  A    between atoms: _37  and  _38
REMARK   18  A    between atoms: _37  and  _40
REMARK   19  A    between atoms: _40  and  _41
REMARK   20  A    between atoms: _41  and  _42
REMARK   21  A    between atoms: _44  and  _46
REMARK   22  A    between atoms: _46  and  _47
REMARK   23  A    between atoms: _46  and  _49
REMARK   24  A    between atoms: _49  and  _50
REMARK   25  A    between atoms: _52  and  _54
REMARK   26  A    between atoms: _54  and  _55
REMARK   27  A    between atoms: _54  and  _57
REMARK   28  A    between atoms: _57  and  _58
REMARK   29  A    between atoms: _60  and  _62
REMARK   30  A    between atoms: _62  and  _63
REMARK   31  A    between atoms: _62  and  _65
REMARK   32  A    between atoms: _65  and  _66
REMARK   33  A    between atoms: _69  and  _71
REMARK   34  A    between atoms: _71  and  _72
REMARK   35  A    between atoms: _74  and  _76
REMARK   36  A    between atoms: _76  and  _77
REMARK   37  A    between atoms: _80  and  _82
REMARK   38  A    between atoms: _82  and  _83
REMARK   39  A    between atoms: _82  and  _85
REMARK   40  A    between atoms: _85  and  _86
REMARK   41  A    between atoms: _86  and  _87
REMARK   42  A    between atoms: _90  and  _92
REMARK   43  A    between atoms: _92  and  _93
REMARK   44  A    between atoms: _92  and  _95
REMARK   45  A    between atoms: _95  and  _96
REMARK   46  A    between atoms: _98  and  _100
REMARK   47  A    between atoms: _100  and  _101
REMARK   48  A    between atoms: _100  and  _103
REMARK   49  A    between atoms: _103  and  _104
REMARK   50  A    between atoms: _109  and  _111
REMARK   51  A    between atoms: _111  and  _112
REMARK   52  A    between atoms: _111  and  _114
REMARK   53  A    between atoms: _114  and  _115
REMARK   54  A    between atoms: _115  and  _116
REMARK   55  A    between atoms: _119  and  _121
REMARK   56  A    between atoms: _121  and  _122
REMARK   57  A    between atoms: _121  and  _124
REMARK   58  A    between atoms: _124  and  _125
REMARK   59  A    between atoms: _127  and  _129
REMARK   60  A    between atoms: _129  and  _130
REMARK   61  A    between atoms: _129  and  _132
REMARK   62  A    between atoms: _132  and  _133
REMARK   63  A    between atoms: _143  and  _145
REMARK   64  A    between atoms: _145  and  _146
REMARK   65  A    between atoms: _145  and  _148
REMARK   66  A    between atoms: _148  and  _149
REMARK   67  A    between atoms: _154  and  _156
REMARK   68  A    between atoms: _156  and  _157
REMARK   69  A    between atoms: _159  and  _161
REMARK   70  A    between atoms: _161  and  _162
REMARK   71  A    between atoms: _161  and  _164
REMARK   72  A    between atoms: _164  and  _165
REMARK   73  A    between atoms: _165  and  _166
REMARK   74  A    between atoms: _168  and  _170
REMARK   75  A    between atoms: _170  and  _171
REMARK   76  A    between atoms: _170  and  _173
REMARK   77  A    between atoms: _173  and  _174
REMARK   78  A    between atoms: _177  and  _179
REMARK   79  A    between atoms: _179  and  _180
REMARK   80  A    between atoms: _183  and  _185
REMARK   81  A    between atoms: _185  and  _186
REMARK   82  A    between atoms: _185  and  _188
REMARK   83  A    between atoms: _188  and  _189
REMARK   84  A    between atoms: _192  and  _194
REMARK   85  A    between atoms: _194  and  _195
REMARK   86  A    between atoms: _194  and  _197
REMARK   87  A    between atoms: _197  and  _198
REMARK   88  A    between atoms: _200  and  _202
REMARK   89  A    between atoms: _202  and  _203
REMARK   90  A    between atoms: _202  and  _205
REMARK   91  A    between atoms: _205  and  _206
REMARK   92  A    between atoms: _209  and  _211
REMARK   93  A    between atoms: _211  and  _212
REMARK   94  A    between atoms: _215  and  _217
REMARK   95  A    between atoms: _217  and  _218
REMARK   96  A    between atoms: _217  and  _220
REMARK   97  A    between atoms: _220  and  _221
REMARK   98  A    between atoms: _221  and  _222
REMARK   99  A    between atoms: _226  and  _227
REMARK  100  A    between atoms: _232  and  _234
REMARK  101  A    between atoms: _234  and  _235
REMARK  102  A    between atoms: _234  and  _237
REMARK  103  A    between atoms: _237  and  _238
REMARK  104  A    between atoms: _241  and  _243
REMARK  105  A    between atoms: _243  and  _244
REMARK  106  A    between atoms: _243  and  _246
REMARK  107  A    between atoms: _246  and  _247
REMARK  108  A    between atoms: _250  and  _252
REMARK  109  A    between atoms: _252  and  _253
REMARK  110  A    between atoms: _252  and  _255
REMARK  111  A    between atoms: _255  and  _256
REMARK  112  A    between atoms: _258  and  _260
REMARK  113  A    between atoms: _260  and  _261
REMARK  114  A    between atoms: _260  and  _263
REMARK  115  A    between atoms: _263  and  _264
REMARK  116  A    between atoms: _266  and  _268
REMARK  117  A    between atoms: _268  and  _269
REMARK  118  A    between atoms: _271  and  _273
REMARK  119  A    between atoms: _273  and  _274
REMARK  120  A    between atoms: _276  and  _278
REMARK  121  A    between atoms: _278  and  _279
REMARK  122  A    between atoms: _278  and  _281
REMARK  123  A    between atoms: _281  and  _282
REMARK  124  A    between atoms: _285  and  _287
REMARK  125  A    between atoms: _287  and  _288
REMARK  126  A    between atoms: _287  and  _290
REMARK  127  A    between atoms: _290  and  _291
REMARK  128  A    between atoms: _291  and  _292
REMARK  129  A    between atoms: _295  and  _297
REMARK  130  A    between atoms: _297  and  _298
REMARK  131  A    between atoms: _301  and  _303
REMARK  132  A    between atoms: _303  and  _304
REMARK  133  A    between atoms: _303  and  _306
REMARK  134  A    between atoms: _306  and  _307
REMARK  135  A    between atoms: _307  and  _308
REMARK  136  A    between atoms: _313  and  _315
REMARK  137  A    between atoms: _315  and  _316
REMARK  138  A    between atoms: _315  and  _318
REMARK  139  A    between atoms: _318  and  _319
REMARK  140  A    between atoms: _322  and  _324
REMARK  141  A    between atoms: _324  and  _325
REMARK  142  A    between atoms: _327  and  _329
REMARK  143  A    between atoms: _329  and  _330
REMARK  144  A    between atoms: _329  and  _332
REMARK  145  A    between atoms: _332  and  _333
REMARK  146  A    between atoms: _336  and  _338
REMARK  147  A    between atoms: _338  and  _339
REMARK  148  A    between atoms: _338  and  _341
REMARK  149  A    between atoms: _341  and  _342
REMARK  150  A    between atoms: _345  and  _347
REMARK  151  A    between atoms: _347  and  _348
REMARK  152  A    between atoms: _347  and  _350
REMARK  153  A    between atoms: _350  and  _351
REMARK  154  A    between atoms: _353  and  _355
REMARK  155  A    between atoms: _355  and  _356
REMARK  156  A    between atoms: _355  and  _358
REMARK  157  A    between atoms: _358  and  _359
REMARK  158  A    between atoms: _359  and  _360
REMARK  159  A    between atoms: _360  and  _361
REMARK  160  A    between atoms: _361  and  _362
REMARK  161  A    between atoms: _367  and  _368
REMARK  162  A    between atoms: _373  and  _375
REMARK  163  A    between atoms: _375  and  _376
REMARK  164  A    between atoms: _375  and  _378
REMARK  165  A    between atoms: _378  and  _379
REMARK  166  A    between atoms: _382  and  _384
REMARK  167  A    between atoms: _384  and  _385
REMARK  168  A    between atoms: _388  and  _390
REMARK  169  A    between atoms: _390  and  _391
REMARK  170  A    between atoms: _390  and  _393
REMARK  171  A    between atoms: _393  and  _394
REMARK  172  A    between atoms: _399  and  _401
REMARK  173  A    between atoms: _401  and  _402
REMARK  174  A    between atoms: _401  and  _404
REMARK  175  A    between atoms: _407  and  _409
REMARK  176  A    between atoms: _409  and  _410
REMARK  177  A    between atoms: _409  and  _412
REMARK  178  A    between atoms: _412  and  _413
REMARK  179  A    between atoms: _413  and  _414
REMARK  180  A    between atoms: _414  and  _415
REMARK  181  A    between atoms: _424  and  _426
REMARK  182  A    between atoms: _426  and  _427
REMARK  183  A    between atoms: _426  and  _429
REMARK  184  A    between atoms: _429  and  _430
REMARK  185  A    between atoms: _435  and  _437
REMARK  186  A    between atoms: _437  and  _438
REMARK  187  A    between atoms: _437  and  _440
REMARK  188  A    between atoms: _440  and  _441
REMARK  189  A    between atoms: _447  and  _449
REMARK  190  A    between atoms: _449  and  _450
REMARK  191  A    between atoms: _449  and  _452
REMARK  192  A    between atoms: _452  and  _453
REMARK  193  A    between atoms: _455  and  _457
REMARK  194  A    between atoms: _457  and  _458
REMARK  195  A    between atoms: _457  and  _460
REMARK  196  A    between atoms: _460  and  _461
REMARK  197  A    between atoms: _461  and  _462
REMARK  198  A    between atoms: _465  and  _467
REMARK  199  A    between atoms: _467  and  _468
REMARK  200  A    between atoms: _467  and  _470
REMARK  201  A    between atoms: _470  and  _471
REMARK  202  A    between atoms: _473  and  _475
REMARK  203  A    between atoms: _475  and  _476
REMARK  204  A    between atoms: _475  and  _478
REMARK  205  A    between atoms: _478  and  _479
REMARK  206  A    between atoms: _479  and  _480
REMARK  207  A    between atoms: _483  and  _485
REMARK  208  A    between atoms: _485  and  _486
REMARK  209  A    between atoms: _485  and  _488
REMARK  210  A    between atoms: _488  and  _489
REMARK  211  A    between atoms: _492  and  _494
REMARK  212  A    between atoms: _494  and  _495
REMARK  213  A    between atoms: _494  and  _497
REMARK  214  A    between atoms: _497  and  _498
REMARK  215  A    between atoms: _504  and  _506
REMARK  216  A    between atoms: _506  and  _507
REMARK  217  A    between atoms: _506  and  _509
REMARK  218  A    between atoms: _509  and  _510
REMARK  219  A    between atoms: _515  and  _516
REMARK  220  A    between atoms: _518  and  _520
REMARK  221  A    between atoms: _520  and  _521
REMARK  222  A    between atoms: _520  and  _523
REMARK  223  A    between atoms: _523  and  _524
REMARK  224  A    between atoms: _527  and  _529
REMARK  225  A    between atoms: _529  and  _530
REMARK  226  A    between atoms: _529  and  _532
REMARK  227  A    between atoms: _532  and  _533
REMARK  228  A    between atoms: _536  and  _538
REMARK  229  A    between atoms: _538  and  _539
REMARK  230  A    between atoms: _538  and  _541
REMARK  231  A    between atoms: _541  and  _542
REMARK  232  A    between atoms: _547  and  _549
REMARK  233  A    between atoms: _549  and  _550
REMARK  234  A    between atoms: _549  and  _552
REMARK                            x       y       z     vdW  Elec       q    Type
REMARK                         _______ _______ _______ _____ _____    ______ ____
ROOT
ATOM      1  O   HOH     1      15.273  60.473  12.301  0.00  0.00    +0.000 OA
ENDROOT
TORSDOF 0
REMARK  Name = ../refined-set-2016/1m0n/1m0n_pocket.pdb
REMARK  234 active torsions:
REMARK  status: ('A' for Active; 'I' for Inactive)
REMARK    1  A    between atoms: _1  and  _3
REMARK    2  A    between atoms: _3  and  _4
REMARK    3  A    between atoms: _3  and  _6
REMARK    4  A    between atoms: _6  and  _7
REMARK    5  A    between atoms: _10  and  _12
REMARK    6  A    between atoms: _12  and  _13
REMARK    7  A    between atoms: _12  and  _15
REMARK    8  A    between atoms: _15  and  _16
REMARK    9  A    between atoms: _18  and  _20
REMARK   10  A    between atoms: _20  and  _21
REMARK   11  A    between atoms: _23  and  _25
REMARK   12  A    between atoms: _25  and  _26
REMARK   13  A    between atoms: _25  and  _28
REMARK   14  A    between atoms: _28  and  _29
REMARK   15  A    between atoms: _29  and  _30
REMARK   16  A    between atoms: _35  and  _37
REMARK   17  A    between atoms: _37  and  _38
REMARK   18  A    between atoms: _37  and  _40
REMARK   19  A    between atoms: _40  and  _41
REMARK   20  A    between atoms: _41  and  _42
REMARK   21  A    between atoms: _44  and  _46
REMARK   22  A    between atoms: _46  and  _47
REMARK   23  A    between atoms: _46  and  _49
REMARK   24  A    between atoms: _49  and  _50
REMARK   25  A    between atoms: _52  and  _54
REMARK   26  A    between atoms: _54  and  _55
REMARK   27  A    between atoms: _54  and  _57
REMARK   28  A    between atoms: _57  and  _58
REMARK   29  A    between atoms: _60  and  _62
REMARK   30  A    between atoms: _62  and  _63
REMARK   31  A    between atoms: _62  and  _65
REMARK   32  A    between atoms: _65  and  _66
REMARK   33  A    between atoms: _69  and  _71
REMARK   34  A    between atoms: _71  and  _72
REMARK   35  A    between atoms: _74  and  _76
REMARK   36  A    between atoms: _76  and  _77
REMARK   37  A    between atoms: _80  and  _82
REMARK   38  A    between atoms: _82  and  _83
REMARK   39  A    between atoms: _82  and  _85
REMARK   40  A    between atoms: _85  and  _86
REMARK   41  A    between atoms: _86  and  _87
REMARK   42  A    between atoms: _90  and  _92
REMARK   43  A    between atoms: _92  and  _93
REMARK   44  A    between atoms: _92  and  _95
REMARK   45  A    between atoms: _95  and  _96
REMARK   46  A    between atoms: _98  and  _100
REMARK   47  A    between atoms: _100  and  _101
REMARK   48  A    between atoms: _100  and  _103
REMARK   49  A    between atoms: _103  and  _104
REMARK   50  A    between atoms: _109  and  _111
REMARK   51  A    between atoms: _111  and  _112
REMARK   52  A    between atoms: _111  and  _114
REMARK   53  A    between atoms: _114  and  _115
REMARK   54  A    between atoms: _115  and  _116
REMARK   55  A    between atoms: _119  and  _121
REMARK   56  A    between atoms: _121  and  _122
REMARK   57  A    between atoms: _121  and  _124
REMARK   58  A    between atoms: _124  and  _125
REMARK   59  A    between atoms: _127  and  _129
REMARK   60  A    between atoms: _129  and  _130
REMARK   61  A    between atoms: _129  and  _132
REMARK   62  A    between atoms: _132  and  _133
REMARK   63  A    between atoms: _143  and  _145
REMARK   64  A    between atoms: _145  and  _146
REMARK   65  A    between atoms: _145  and  _148
REMARK   66  A    between atoms: _148  and  _149
REMARK   67  A    between atoms: _154  and  _156
REMARK   68  A    between atoms: _156  and  _157
REMARK   69  A    between atoms: _159  and  _161
REMARK   70  A    between atoms: _161  and  _162
REMARK   71  A    between atoms: _161  and  _164
REMARK   72  A    between atoms: _164  and  _165
REMARK   73  A    between atoms: _165  and  _166
REMARK   74  A    between atoms: _168  and  _170
REMARK   75  A    between atoms: _170  and  _171
REMARK   76  A    between atoms: _170  and  _173
REMARK   77  A    between atoms: _173  and  _174
REMARK   78  A    between atoms: _177  and  _179
REMARK   79  A    between atoms: _179  and  _180
REMARK   80  A    between atoms: _183  and  _185
REMARK   81  A    between atoms: _185  and  _186
REMARK   82  A    between atoms: _185  and  _188
REMARK   83  A    between atoms: _188  and  _189
REMARK   84  A    between atoms: _192  and  _194
REMARK   85  A    between atoms: _194  and  _195
REMARK   86  A    between atoms: _194  and  _197
REMARK   87  A    between atoms: _197  and  _198
REMARK   88  A    between atoms: _200  and  _202
REMARK   89  A    between atoms: _202  and  _203
REMARK   90  A    between atoms: _202  and  _205
REMARK   91  A    between atoms: _205  and  _206
REMARK   92  A    between atoms: _209  and  _211
REMARK   93  A    between atoms: _211  and  _212
REMARK   94  A    between atoms: _215  and  _217
REMARK   95  A    between atoms: _217  and  _218
REMARK   96  A    between atoms: _217  and  _220
REMARK   97  A    between atoms: _220  and  _221
REMARK   98  A    between atoms: _221  and  _222
REMARK   99  A    between atoms: _226  and  _227
REMARK  100  A    between atoms: _232  and  _234
REMARK  101  A    between atoms: _234  and  _235
REMARK  102  A    between atoms: _234  and  _237
REMARK  103  A    between atoms: _237  and  _238
REMARK  104  A    between atoms: _241  and  _243
REMARK  105  A    between atoms: _243  and  _244
REMARK  106  A    between atoms: _243  and  _246
REMARK  107  A    between atoms: _246  and  _247
REMARK  108  A    between atoms: _250  and  _252
REMARK  109  A    between atoms: _252  and  _253
REMARK  110  A    between atoms: _252  and  _255
REMARK  111  A    between atoms: _255  and  _256
REMARK  112  A    between atoms: _258  and  _260
REMARK  113  A    between atoms: _260  and  _261
REMARK  114  A    between atoms: _260  and  _263
REMARK  115  A    between atoms: _263  and  _264
REMARK  116  A    between atoms: _266  and  _268
REMARK  117  A    between atoms: _268  and  _269
REMARK  118  A    between atoms: _271  and  _273
REMARK  119  A    between atoms: _273  and  _274
REMARK  120  A    between atoms: _276  and  _278
REMARK  121  A    between atoms: _278  and  _279
REMARK  122  A    between atoms: _278  and  _281
REMARK  123  A    between atoms: _281  and  _282
REMARK  124  A    between atoms: _285  and  _287
REMARK  125  A    between atoms: _287  and  _288
REMARK  126  A    between atoms: _287  and  _290
REMARK  127  A    between atoms: _290  and  _291
REMARK  128  A    between atoms: _291  and  _292
REMARK  129  A    between atoms: _295  and  _297
REMARK  130  A    between atoms: _297  and  _298
REMARK  131  A    between atoms: _301  and  _303
REMARK  132  A    between atoms: _303  and  _304
REMARK  133  A    between atoms: _303  and  _306
REMARK  134  A    between atoms: _306  and  _307
REMARK  135  A    between atoms: _307  and  _308
REMARK  136  A    between atoms: _313  and  _315
REMARK  137  A    between atoms: _315  and  _316
REMARK  138  A    between atoms: _315  and  _318
REMARK  139  A    between atoms: _318  and  _319
REMARK  140  A    between atoms: _322  and  _324
REMARK  141  A    between atoms: _324  and  _325
REMARK  142  A    between atoms: _327  and  _329
REMARK  143  A    between atoms: _329  and  _330
REMARK  144  A    between atoms: _329  and  _332
REMARK  145  A    between atoms: _332  and  _333
REMARK  146  A    between atoms: _336  and  _338
REMARK  147  A    between atoms: _338  and  _339
REMARK  148  A    between atoms: _338  and  _341
REMARK  149  A    between atoms: _341  and  _342
REMARK  150  A    between atoms: _345  and  _347
REMARK  151  A    between atoms: _347  and  _348
REMARK  152  A    between atoms: _347  and  _350
REMARK  153  A    between atoms: _350  and  _351
REMARK  154  A    between atoms: _353  and  _355
REMARK  155  A    between atoms: _355  and  _356
REMARK  156  A    between atoms: _355  and  _358
REMARK  157  A    between atoms: _358  and  _359
REMARK  158  A    between atoms: _359  and  _360
REMARK  159  A    between atoms: _360  and  _361
REMARK  160  A    between atoms: _361  and  _362
REMARK  161  A    between atoms: _367  and  _368
REMARK  162  A    between atoms: _373  and  _375
REMARK  163  A    between atoms: _375  and  _376
REMARK  164  A    between atoms: _375  and  _378
REMARK  165  A    between atoms: _378  and  _379
REMARK  166  A    between atoms: _382  and  _384
REMARK  167  A    between atoms: _384  and  _385
REMARK  168  A    between atoms: _388  and  _390
REMARK  169  A    between atoms: _390  and  _391
REMARK  170  A    between atoms: _390  and  _393
REMARK  171  A    between atoms: _393  and  _394
REMARK  172  A    between atoms: _399  and  _401
REMARK  173  A    between atoms: _401  and  _402
REMARK  174  A    between atoms: _401  and  _404
REMARK  175  A    between atoms: _407  and  _409
REMARK  176  A    between atoms: _409  and  _410
REMARK  177  A    between atoms: _409  and  _412
REMARK  178  A    between atoms: _412  and  _413
REMARK  179  A    between atoms: _413  and  _414
REMARK  180  A    between atoms: _414  and  _415
REMARK  181  A    between atoms: _424  and  _426
REMARK  182  A    between atoms: _426  and  _427
REMARK  183  A    between atoms: _426  and  _429
REMARK  184  A    between atoms: _429  and  _430
REMARK  185  A    between atoms: _435  and  _437
REMARK  186  A    between atoms: _437  and  _438
REMARK  187  A    between atoms: _437  and  _440
REMARK  188  A    between atoms: _440  and  _441
REMARK  189  A    between atoms: _447  and  _449
REMARK  190  A    between atoms: _449  and  _450
REMARK  191  A    between atoms: _449  and  _452
REMARK  192  A    between atoms: _452  and  _453
REMARK  193  A    between atoms: _455  and  _457
REMARK  194  A    between atoms: _457  and  _458
REMARK  195  A    between atoms: _457  and  _460
REMARK  196  A    between atoms: _460  and  _461
REMARK  197  A    between atoms: _461  and  _462
REMARK  198  A    between atoms: _465  and  _467
REMARK  199  A    between atoms: _467  and  _468
REMARK  200  A    between atoms: _467  and  _470
REMARK  201  A    between atoms: _470  and  _471
REMARK  202  A    between atoms: _473  and  _475
REMARK  203  A    between atoms: _475  and  _476
REMARK  204  A    between atoms: _475  and  _478
REMARK  205  A    between atoms: _478  and  _479
REMARK  206  A    between atoms: _479  and  _480
REMARK  207  A    between atoms: _483  and  _485
REMARK  208  A    between atoms: _485  and  _486
REMARK  209  A    between atoms: _485  and  _488
REMARK  210  A    between atoms: _488  and  _489
REMARK  211  A    between atoms: _492  and  _494
REMARK  212  A    between atoms: _494  and  _495
REMARK  213  A    between atoms: _494  and  _497
REMARK  214  A    between atoms: _497  and  _498
REMARK  215  A    between atoms: _504  and  _506
REMARK  216  A    between atoms: _506  and  _507
REMARK  217  A    between atoms: _506  and  _509
REMARK  218  A    between atoms: _509  and  _510
REMARK  219  A    between atoms: _515  and  _516
REMARK  220  A    between atoms: _518  and  _520
REMARK  221  A    between atoms: _520  and  _521
REMARK  222  A    between atoms: _520  and  _523
REMARK  223  A    between atoms: _523  and  _524
REMARK  224  A    between atoms: _527  and  _529
REMARK  225  A    between atoms: _529  and  _530
REMARK  226  A    between atoms: _529  and  _532
REMARK  227  A    between atoms: _532  and  _533
REMARK  228  A    between atoms: _536  and  _538
REMARK  229  A    between atoms: _538  and  _539
REMARK  230  A    between atoms: _538  and  _541
REMARK  231  A    between atoms: _541  and  _542
REMARK  232  A    between atoms: _547  and  _549
REMARK  233  A    between atoms: _549  and  _550
REMARK  234  A    between atoms: _549  and  _552
REMARK                            x       y       z     vdW  Elec       q    Type
REMARK                         _______ _______ _______ _____ _____    ______ ____
ROOT
ATOM      1  O   HOH     1      22.573  49.977  17.992  0.00  0.00    +0.000 OA
ENDROOT
TORSDOF 0
REMARK  Name = ../refined-set-2016/1m0n/1m0n_pocket.pdb
REMARK  234 active torsions:
REMARK  status: ('A' for Active; 'I' for Inactive)
REMARK    1  A    between atoms: _1  and  _3
REMARK    2  A    between atoms: _3  and  _4
REMARK    3  A    between atoms: _3  and  _6
REMARK    4  A    between atoms: _6  and  _7
REMARK    5  A    between atoms: _10  and  _12
REMARK    6  A    between atoms: _12  and  _13
REMARK    7  A    between atoms: _12  and  _15
REMARK    8  A    between atoms: _15  and  _16
REMARK    9  A    between atoms: _18  and  _20
REMARK   10  A    between atoms: _20  and  _21
REMARK   11  A    between atoms: _23  and  _25
REMARK   12  A    between atoms: _25  and  _26
REMARK   13  A    between atoms: _25  and  _28
REMARK   14  A    between atoms: _28  and  _29
REMARK   15  A    between atoms: _29  and  _30
REMARK   16  A    between atoms: _35  and  _37
REMARK   17  A    between atoms: _37  and  _38
REMARK   18  A    between atoms: _37  and  _40
REMARK   19  A    between atoms: _40  and  _41
REMARK   20  A    between atoms: _41  and  _42
REMARK   21  A    between atoms: _44  and  _46
REMARK   22  A    between atoms: _46  and  _47
REMARK   23  A    between atoms: _46  and  _49
REMARK   24  A    between atoms: _49  and  _50
REMARK   25  A    between atoms: _52  and  _54
REMARK   26  A    between atoms: _54  and  _55
REMARK   27  A    between atoms: _54  and  _57
REMARK   28  A    between atoms: _57  and  _58
REMARK   29  A    between atoms: _60  and  _62
REMARK   30  A    between atoms: _62  and  _63
REMARK   31  A    between atoms: _62  and  _65
REMARK   32  A    between atoms: _65  and  _66
REMARK   33  A    between atoms: _69  and  _71
REMARK   34  A    between atoms: _71  and  _72
REMARK   35  A    between atoms: _74  and  _76
REMARK   36  A    between atoms: _76  and  _77
REMARK   37  A    between atoms: _80  and  _82
REMARK   38  A    between atoms: _82  and  _83
REMARK   39  A    between atoms: _82  and  _85
REMARK   40  A    between atoms: _85  and  _86
REMARK   41  A    between atoms: _86  and  _87
REMARK   42  A    between atoms: _90  and  _92
REMARK   43  A    between atoms: _92  and  _93
REMARK   44  A    between atoms: _92  and  _95
REMARK   45  A    between atoms: _95  and  _96
REMARK   46  A    between atoms: _98  and  _100
REMARK   47  A    between atoms: _100  and  _101
REMARK   48  A    between atoms: _100  and  _103
REMARK   49  A    between atoms: _103  and  _104
REMARK   50  A    between atoms: _109  and  _111
REMARK   51  A    between atoms: _111  and  _112
REMARK   52  A    between atoms: _111  and  _114
REMARK   53  A    between atoms: _114  and  _115
REMARK   54  A    between atoms: _115  and  _116
REMARK   55  A    between atoms: _119  and  _121
REMARK   56  A    between atoms: _121  and  _122
REMARK   57  A    between atoms: _121  and  _124
REMARK   58  A    between atoms: _124  and  _125
REMARK   59  A    between atoms: _127  and  _129
REMARK   60  A    between atoms: _129  and  _130
REMARK   61  A    between atoms: _129  and  _132
REMARK   62  A    between atoms: _132  and  _133
REMARK   63  A    between atoms: _143  and  _145
REMARK   64  A    between atoms: _145  and  _146
REMARK   65  A    between atoms: _145  and  _148
REMARK   66  A    between atoms: _148  and  _149
REMARK   67  A    between atoms: _154  and  _156
REMARK   68  A    between atoms: _156  and  _157
REMARK   69  A    between atoms: _159  and  _161
REMARK   70  A    between atoms: _161  and  _162
REMARK   71  A    between atoms: _161  and  _164
REMARK   72  A    between atoms: _164  and  _165
REMARK   73  A    between atoms: _165  and  _166
REMARK   74  A    between atoms: _168  and  _170
REMARK   75  A    between atoms: _170  and  _171
REMARK   76  A    between atoms: _170  and  _173
REMARK   77  A    between atoms: _173  and  _174
REMARK   78  A    between atoms: _177  and  _179
REMARK   79  A    between atoms: _179  and  _180
REMARK   80  A    between atoms: _183  and  _185
REMARK   81  A    between atoms: _185  and  _186
REMARK   82  A    between atoms: _185  and  _188
REMARK   83  A    between atoms: _188  and  _189
REMARK   84  A    between atoms: _192  and  _194
REMARK   85  A    between atoms: _194  and  _195
REMARK   86  A    between atoms: _194  and  _197
REMARK   87  A    between atoms: _197  and  _198
REMARK   88  A    between atoms: _200  and  _202
REMARK   89  A    between atoms: _202  and  _203
REMARK   90  A    between atoms: _202  and  _205
REMARK   91  A    between atoms: _205  and  _206
REMARK   92  A    between atoms: _209  and  _211
REMARK   93  A    between atoms: _211  and  _212
REMARK   94  A    between atoms: _215  and  _217
REMARK   95  A    between atoms: _217  and  _218
REMARK   96  A    between atoms: _217  and  _220
REMARK   97  A    between atoms: _220  and  _221
REMARK   98  A    between atoms: _221  and  _222
REMARK   99  A    between atoms: _226  and  _227
REMARK  100  A    between atoms: _232  and  _234
REMARK  101  A    between atoms: _234  and  _235
REMARK  102  A    between atoms: _234  and  _237
REMARK  103  A    between atoms: _237  and  _238
REMARK  104  A    between atoms: _241  and  _243
REMARK  105  A    between atoms: _243  and  _244
REMARK  106  A    between atoms: _243  and  _246
REMARK  107  A    between atoms: _246  and  _247
REMARK  108  A    between atoms: _250  and  _252
REMARK  109  A    between atoms: _252  and  _253
REMARK  110  A    between atoms: _252  and  _255
REMARK  111  A    between atoms: _255  and  _256
REMARK  112  A    between atoms: _258  and  _260
REMARK  113  A    between atoms: _260  and  _261
REMARK  114  A    between atoms: _260  and  _263
REMARK  115  A    between atoms: _263  and  _264
REMARK  116  A    between atoms: _266  and  _268
REMARK  117  A    between atoms: _268  and  _269
REMARK  118  A    between atoms: _271  and  _273
REMARK  119  A    between atoms: _273  and  _274
REMARK  120  A    between atoms: _276  and  _278
REMARK  121  A    between atoms: _278  and  _279
REMARK  122  A    between atoms: _278  and  _281
REMARK  123  A    between atoms: _281  and  _282
REMARK  124  A    between atoms: _285  and  _287
REMARK  125  A    between atoms: _287  and  _288
REMARK  126  A    between atoms: _287  and  _290
REMARK  127  A    between atoms: _290  and  _291
REMARK  128  A    between atoms: _291  and  _292
REMARK  129  A    between atoms: _295  and  _297
REMARK  130  A    between atoms: _297  and  _298
REMARK  131  A    between atoms: _301  and  _303
REMARK  132  A    between atoms: _303  and  _304
REMARK  133  A    between atoms: _303  and  _306
REMARK  134  A    between atoms: _306  and  _307
REMARK  135  A    between atoms: _307  and  _308
REMARK  136  A    between atoms: _313  and  _315
REMARK  137  A    between atoms: _315  and  _316
REMARK  138  A    between atoms: _315  and  _318
REMARK  139  A    between atoms: _318  and  _319
REMARK  140  A    between atoms: _322  and  _324
REMARK  141  A    between atoms: _324  and  _325
REMARK  142  A    between atoms: _327  and  _329
REMARK  143  A    between atoms: _329  and  _330
REMARK  144  A    between atoms: _329  and  _332
REMARK  145  A    between atoms: _332  and  _333
REMARK  146  A    between atoms: _336  and  _338
REMARK  147  A    between atoms: _338  and  _339
REMARK  148  A    between atoms: _338  and  _341
REMARK  149  A    between atoms: _341  and  _342
REMARK  150  A    between atoms: _345  and  _347
REMARK  151  A    between atoms: _347  and  _348
REMARK  152  A    between atoms: _347  and  _350
REMARK  153  A    between atoms: _350  and  _351
REMARK  154  A    between atoms: _353  and  _355
REMARK  155  A    between atoms: _355  and  _356
REMARK  156  A    between atoms: _355  and  _358
REMARK  157  A    between atoms: _358  and  _359
REMARK  158  A    between atoms: _359  and  _360
REMARK  159  A    between atoms: _360  and  _361
REMARK  160  A    between atoms: _361  and  _362
REMARK  161  A    between atoms: _367  and  _368
REMARK  162  A    between atoms: _373  and  _375
REMARK  163  A    between atoms: _375  and  _376
REMARK  164  A    between atoms: _375  and  _378
REMARK  165  A    between atoms: _378  and  _379
REMARK  166  A    between atoms: _382  and  _384
REMARK  167  A    between atoms: _384  and  _385
REMARK  168  A    between atoms: _388  and  _390
REMARK  169  A    between atoms: _390  and  _391
REMARK  170  A    between atoms: _390  and  _393
REMARK  171  A    between atoms: _393  and  _394
REMARK  172  A    between atoms: _399  and  _401
REMARK  173  A    between atoms: _401  and  _402
REMARK  174  A    between atoms: _401  and  _404
REMARK  175  A    between atoms: _407  and  _409
REMARK  176  A    between atoms: _409  and  _410
REMARK  177  A    between atoms: _409  and  _412
REMARK  178  A    between atoms: _412  and  _413
REMARK  179  A    between atoms: _413  and  _414
REMARK  180  A    between atoms: _414  and  _415
REMARK  181  A    between atoms: _424  and  _426
REMARK  182  A    between atoms: _426  and  _427
REMARK  183  A    between atoms: _426  and  _429
REMARK  184  A    between atoms: _429  and  _430
REMARK  185  A    between atoms: _435  and  _437
REMARK  186  A    between atoms: _437  and  _438
REMARK  187  A    between atoms: _437  and  _440
REMARK  188  A    between atoms: _440  and  _441
REMARK  189  A    between atoms: _447  and  _449
REMARK  190  A    between atoms: _449  and  _450
REMARK  191  A    between atoms: _449  and  _452
REMARK  192  A    between atoms: _452  and  _453
REMARK  193  A    between atoms: _455  and  _457
REMARK  194  A    between atoms: _457  and  _458
REMARK  195  A    between atoms: _457  and  _460
REMARK  196  A    between atoms: _460  and  _461
REMARK  197  A    between atoms: _461  and  _462
REMARK  198  A    between atoms: _465  and  _467
REMARK  199  A    between atoms: _467  and  _468
REMARK  200  A    between atoms: _467  and  _470
REMARK  201  A    between atoms: _470  and  _471
REMARK  202  A    between atoms: _473  and  _475
REMARK  203  A    between atoms: _475  and  _476
REMARK  204  A    between atoms: _475  and  _478
REMARK  205  A    between atoms: _478  and  _479
REMARK  206  A    between atoms: _479  and  _480
REMARK  207  A    between atoms: _483  and  _485
REMARK  208  A    between atoms: _485  and  _486
REMARK  209  A    between atoms: _485  and  _488
REMARK  210  A    between atoms: _488  and  _489
REMARK  211  A    between atoms: _492  and  _494
REMARK  212  A    between atoms: _494  and  _495
REMARK  213  A    between atoms: _494  and  _497
REMARK  214  A    between atoms: _497  and  _498
REMARK  215  A    between atoms: _504  and  _506
REMARK  216  A    between atoms: _506  and  _507
REMARK  217  A    between atoms: _506  and  _509
REMARK  218  A    between atoms: _509  and  _510
REMARK  219  A    between atoms: _515  and  _516
REMARK  220  A    between atoms: _518  and  _520
REMARK  221  A    between atoms: _520  and  _521
REMARK  222  A    between atoms: _520  and  _523
REMARK  223  A    between atoms: _523  and  _524
REMARK  224  A    between atoms: _527  and  _529
REMARK  225  A    between atoms: _529  and  _530
REMARK  226  A    between atoms: _529  and  _532
REMARK  227  A    between atoms: _532  and  _533
REMARK  228  A    between atoms: _536  and  _538
REMARK  229  A    between atoms: _538  and  _539
REMARK  230  A    between atoms: _538  and  _541
REMARK  231  A    between atoms: _541  and  _542
REMARK  232  A    between atoms: _547  and  _549
REMARK  233  A    between atoms: _549  and  _550
REMARK  234  A    between atoms: _549  and  _552
REMARK                            x       y       z     vdW  Elec       q    Type
REMARK                         _______ _______ _______ _____ _____    ______ ____
ROOT
ATOM      1  O   HOH     1      14.507  41.632  14.094  0.00  0.00    +0.000 OA
ENDROOT
TORSDOF 0
REMARK  Name = ../refined-set-2016/1m0n/1m0n_pocket.pdb
REMARK  234 active torsions:
REMARK  status: ('A' for Active; 'I' for Inactive)
REMARK    1  A    between atoms: _1  and  _3
REMARK    2  A    between atoms: _3  and  _4
REMARK    3  A    between atoms: _3  and  _6
REMARK    4  A    between atoms: _6  and  _7
REMARK    5  A    between atoms: _10  and  _12
REMARK    6  A    between atoms: _12  and  _13
REMARK    7  A    between atoms: _12  and  _15
REMARK    8  A    between atoms: _15  and  _16
REMARK    9  A    between atoms: _18  and  _20
REMARK   10  A    between atoms: _20  and  _21
REMARK   11  A    between atoms: _23  and  _25
REMARK   12  A    between atoms: _25  and  _26
REMARK   13  A    between atoms: _25  and  _28
REMARK   14  A    between atoms: _28  and  _29
REMARK   15  A    between atoms: _29  and  _30
REMARK   16  A    between atoms: _35  and  _37
REMARK   17  A    between atoms: _37  and  _38
REMARK   18  A    between atoms: _37  and  _40
REMARK   19  A    between atoms: _40  and  _41
REMARK   20  A    between atoms: _41  and  _42
REMARK   21  A    between atoms: _44  and  _46
REMARK   22  A    between atoms: _46  and  _47
REMARK   23  A    between atoms: _46  and  _49
REMARK   24  A    between atoms: _49  and  _50
REMARK   25  A    between atoms: _52  and  _54
REMARK   26  A    between atoms: _54  and  _55
REMARK   27  A    between atoms: _54  and  _57
REMARK   28  A    between atoms: _57  and  _58
REMARK   29  A    between atoms: _60  and  _62
REMARK   30  A    between atoms: _62  and  _63
REMARK   31  A    between atoms: _62  and  _65
REMARK   32  A    between atoms: _65  and  _66
REMARK   33  A    between atoms: _69  and  _71
REMARK   34  A    between atoms: _71  and  _72
REMARK   35  A    between atoms: _74  and  _76
REMARK   36  A    between atoms: _76  and  _77
REMARK   37  A    between atoms: _80  and  _82
REMARK   38  A    between atoms: _82  and  _83
REMARK   39  A    between atoms: _82  and  _85
REMARK   40  A    between atoms: _85  and  _86
REMARK   41  A    between atoms: _86  and  _87
REMARK   42  A    between atoms: _90  and  _92
REMARK   43  A    between atoms: _92  and  _93
REMARK   44  A    between atoms: _92  and  _95
REMARK   45  A    between atoms: _95  and  _96
REMARK   46  A    between atoms: _98  and  _100
REMARK   47  A    between atoms: _100  and  _101
REMARK   48  A    between atoms: _100  and  _103
REMARK   49  A    between atoms: _103  and  _104
REMARK   50  A    between atoms: _109  and  _111
REMARK   51  A    between atoms: _111  and  _112
REMARK   52  A    between atoms: _111  and  _114
REMARK   53  A    between atoms: _114  and  _115
REMARK   54  A    between atoms: _115  and  _116
REMARK   55  A    between atoms: _119  and  _121
REMARK   56  A    between atoms: _121  and  _122
REMARK   57  A    between atoms: _121  and  _124
REMARK   58  A    between atoms: _124  and  _125
REMARK   59  A    between atoms: _127  and  _129
REMARK   60  A    between atoms: _129  and  _130
REMARK   61  A    between atoms: _129  and  _132
REMARK   62  A    between atoms: _132  and  _133
REMARK   63  A    between atoms: _143  and  _145
REMARK   64  A    between atoms: _145  and  _146
REMARK   65  A    between atoms: _145  and  _148
REMARK   66  A    between atoms: _148  and  _149
REMARK   67  A    between atoms: _154  and  _156
REMARK   68  A    between atoms: _156  and  _157
REMARK   69  A    between atoms: _159  and  _161
REMARK   70  A    between atoms: _161  and  _162
REMARK   71  A    between atoms: _161  and  _164
REMARK   72  A    between atoms: _164  and  _165
REMARK   73  A    between atoms: _165  and  _166
REMARK   74  A    between atoms: _168  and  _170
REMARK   75  A    between atoms: _170  and  _171
REMARK   76  A    between atoms: _170  and  _173
REMARK   77  A    between atoms: _173  and  _174
REMARK   78  A    between atoms: _177  and  _179
REMARK   79  A    between atoms: _179  and  _180
REMARK   80  A    between atoms: _183  and  _185
REMARK   81  A    between atoms: _185  and  _186
REMARK   82  A    between atoms: _185  and  _188
REMARK   83  A    between atoms: _188  and  _189
REMARK   84  A    between atoms: _192  and  _194
REMARK   85  A    between atoms: _194  and  _195
REMARK   86  A    between atoms: _194  and  _197
REMARK   87  A    between atoms: _197  and  _198
REMARK   88  A    between atoms: _200  and  _202
REMARK   89  A    between atoms: _202  and  _203
REMARK   90  A    between atoms: _202  and  _205
REMARK   91  A    between atoms: _205  and  _206
REMARK   92  A    between atoms: _209  and  _211
REMARK   93  A    between atoms: _211  and  _212
REMARK   94  A    between atoms: _215  and  _217
REMARK   95  A    between atoms: _217  and  _218
REMARK   96  A    between atoms: _217  and  _220
REMARK   97  A    between atoms: _220  and  _221
REMARK   98  A    between atoms: _221  and  _222
REMARK   99  A    between atoms: _226  and  _227
REMARK  100  A    between atoms: _232  and  _234
REMARK  101  A    between atoms: _234  and  _235
REMARK  102  A    between atoms: _234  and  _237
REMARK  103  A    between atoms: _237  and  _238
REMARK  104  A    between atoms: _241  and  _243
REMARK  105  A    between atoms: _243  and  _244
REMARK  106  A    between atoms: _243  and  _246
REMARK  107  A    between atoms: _246  and  _247
REMARK  108  A    between atoms: _250  and  _252
REMARK  109  A    between atoms: _252  and  _253
REMARK  110  A    between atoms: _252  and  _255
REMARK  111  A    between atoms: _255  and  _256
REMARK  112  A    between atoms: _258  and  _260
REMARK  113  A    between atoms: _260  and  _261
REMARK  114  A    between atoms: _260  and  _263
REMARK  115  A    between atoms: _263  and  _264
REMARK  116  A    between atoms: _266  and  _268
REMARK  117  A    between atoms: _268  and  _269
REMARK  118  A    between atoms: _271  and  _273
REMARK  119  A    between atoms: _273  and  _274
REMARK  120  A    between atoms: _276  and  _278
REMARK  121  A    between atoms: _278  and  _279
REMARK  122  A    between atoms: _278  and  _281
REMARK  123  A    between atoms: _281  and  _282
REMARK  124  A    between atoms: _285  and  _287
REMARK  125  A    between atoms: _287  and  _288
REMARK  126  A    between atoms: _287  and  _290
REMARK  127  A    between atoms: _290  and  _291
REMARK  128  A    between atoms: _291  and  _292
REMARK  129  A    between atoms: _295  and  _297
REMARK  130  A    between atoms: _297  and  _298
REMARK  131  A    between atoms: _301  and  _303
REMARK  132  A    between atoms: _303  and  _304
REMARK  133  A    between atoms: _303  and  _306
REMARK  134  A    between atoms: _306  and  _307
REMARK  135  A    between atoms: _307  and  _308
REMARK  136  A    between atoms: _313  and  _315
REMARK  137  A    between atoms: _315  and  _316
REMARK  138  A    between atoms: _315  and  _318
REMARK  139  A    between atoms: _318  and  _319
REMARK  140  A    between atoms: _322  and  _324
REMARK  141  A    between atoms: _324  and  _325
REMARK  142  A    between atoms: _327  and  _329
REMARK  143  A    between atoms: _329  and  _330
REMARK  144  A    between atoms: _329  and  _332
REMARK  145  A    between atoms: _332  and  _333
REMARK  146  A    between atoms: _336  and  _338
REMARK  147  A    between atoms: _338  and  _339
REMARK  148  A    between atoms: _338  and  _341
REMARK  149  A    between atoms: _341  and  _342
REMARK  150  A    between atoms: _345  and  _347
REMARK  151  A    between atoms: _347  and  _348
REMARK  152  A    between atoms: _347  and  _350
REMARK  153  A    between atoms: _350  and  _351
REMARK  154  A    between atoms: _353  and  _355
REMARK  155  A    between atoms: _355  and  _356
REMARK  156  A    between atoms: _355  and  _358
REMARK  157  A    between atoms: _358  and  _359
REMARK  158  A    between atoms: _359  and  _360
REMARK  159  A    between atoms: _360  and  _361
REMARK  160  A    between atoms: _361  and  _362
REMARK  161  A    between atoms: _367  and  _368
REMARK  162  A    between atoms: _373  and  _375
REMARK  163  A    between atoms: _375  and  _376
REMARK  164  A    between atoms: _375  and  _378
REMARK  165  A    between atoms: _378  and  _379
REMARK  166  A    between atoms: _382  and  _384
REMARK  167  A    between atoms: _384  and  _385
REMARK  168  A    between atoms: _388  and  _390
REMARK  169  A    between atoms: _390  and  _391
REMARK  170  A    between atoms: _390  and  _393
REMARK  171  A    between atoms: _393  and  _394
REMARK  172  A    between atoms: _399  and  _401
REMARK  173  A    between atoms: _401  and  _402
REMARK  174  A    between atoms: _401  and  _404
REMARK  175  A    between atoms: _407  and  _409
REMARK  176  A    between atoms: _409  and  _410
REMARK  177  A    between atoms: _409  and  _412
REMARK  178  A    between atoms: _412  and  _413
REMARK  179  A    between atoms: _413  and  _414
REMARK  180  A    between atoms: _414  and  _415
REMARK  181  A    between atoms: _424  and  _426
REMARK  182  A    between atoms: _426  and  _427
REMARK  183  A    between atoms: _426  and  _429
REMARK  184  A    between atoms: _429  and  _430
REMARK  185  A    between atoms: _435  and  _437
REMARK  186  A    between atoms: _437  and  _438
REMARK  187  A    between atoms: _437  and  _440
REMARK  188  A    between atoms: _440  and  _441
REMARK  189  A    between atoms: _447  and  _449
REMARK  190  A    between atoms: _449  and  _450
REMARK  191  A    between atoms: _449  and  _452
REMARK  192  A    between atoms: _452  and  _453
REMARK  193  A    between atoms: _455  and  _457
REMARK  194  A    between atoms: _457  and  _458
REMARK  195  A    between atoms: _457  and  _460
REMARK  196  A    between atoms: _460  and  _461
REMARK  197  A    between atoms: _461  and  _462
REMARK  198  A    between atoms: _465  and  _467
REMARK  199  A    between atoms: _467  and  _468
REMARK  200  A    between atoms: _467  and  _470
REMARK  201  A    between atoms: _470  and  _471
REMARK  202  A    between atoms: _473  and  _475
REMARK  203  A    between atoms: _475  and  _476
REMARK  204  A    between atoms: _475  and  _478
REMARK  205  A    between atoms: _478  and  _479
REMARK  206  A    between atoms: _479  and  _480
REMARK  207  A    between atoms: _483  and  _485
REMARK  208  A    between atoms: _485  and  _486
REMARK  209  A    between atoms: _485  and  _488
REMARK  210  A    between atoms: _488  and  _489
REMARK  211  A    between atoms: _492  and  _494
REMARK  212  A    between atoms: _494  and  _495
REMARK  213  A    between atoms: _494  and  _497
REMARK  214  A    between atoms: _497  and  _498
REMARK  215  A    between atoms: _504  and  _506
REMARK  216  A    between atoms: _506  and  _507
REMARK  217  A    between atoms: _506  and  _509
REMARK  218  A    between atoms: _509  and  _510
REMARK  219  A    between atoms: _515  and  _516
REMARK  220  A    between atoms: _518  and  _520
REMARK  221  A    between atoms: _520  and  _521
REMARK  222  A    between atoms: _520  and  _523
REMARK  223  A    between atoms: _523  and  _524
REMARK  224  A    between atoms: _527  and  _529
REMARK  225  A    between atoms: _529  and  _530
REMARK  226  A    between atoms: _529  and  _532
REMARK  227  A    between atoms: _532  and  _533
REMARK  228  A    between atoms: _536  and  _538
REMARK  229  A    between atoms: _538  and  _539
REMARK  230  A    between atoms: _538  and  _541
REMARK  231  A    between atoms: _541  and  _542
REMARK  232  A    between atoms: _547  and  _549
REMARK  233  A    between atoms: _549  and  _550
REMARK  234  A    between atoms: _549  and  _552
REMARK                            x       y       z     vdW  Elec       q    Type
REMARK                         _______ _______ _______ _____ _____    ______ ____
ROOT
ATOM      1  O   HOH     1      13.670  58.833  17.103  0.00  0.00    +0.000 OA
ENDROOT
TORSDOF 0
REMARK  Name = ../refined-set-2016/1m0n/1m0n_pocket.pdb
REMARK  234 active torsions:
REMARK  status: ('A' for Active; 'I' for Inactive)
REMARK    1  A    between atoms: _1  and  _3
REMARK    2  A    between atoms: _3  and  _4
REMARK    3  A    between atoms: _3  and  _6
REMARK    4  A    between atoms: _6  and  _7
REMARK    5  A    between atoms: _10  and  _12
REMARK    6  A    between atoms: _12  and  _13
REMARK    7  A    between atoms: _12  and  _15
REMARK    8  A    between atoms: _15  and  _16
REMARK    9  A    between atoms: _18  and  _20
REMARK   10  A    between atoms: _20  and  _21
REMARK   11  A    between atoms: _23  and  _25
REMARK   12  A    between atoms: _25  and  _26
REMARK   13  A    between atoms: _25  and  _28
REMARK   14  A    between atoms: _28  and  _29
REMARK   15  A    between atoms: _29  and  _30
REMARK   16  A    between atoms: _35  and  _37
REMARK   17  A    between atoms: _37  and  _38
REMARK   18  A    between atoms: _37  and  _40
REMARK   19  A    between atoms: _40  and  _41
REMARK   20  A    between atoms: _41  and  _42
REMARK   21  A    between atoms: _44  and  _46
REMARK   22  A    between atoms: _46  and  _47
REMARK   23  A    between atoms: _46  and  _49
REMARK   24  A    between atoms: _49  and  _50
REMARK   25  A    between atoms: _52  and  _54
REMARK   26  A    between atoms: _54  and  _55
REMARK   27  A    between atoms: _54  and  _57
REMARK   28  A    between atoms: _57  and  _58
REMARK   29  A    between atoms: _60  and  _62
REMARK   30  A    between atoms: _62  and  _63
REMARK   31  A    between atoms: _62  and  _65
REMARK   32  A    between atoms: _65  and  _66
REMARK   33  A    between atoms: _69  and  _71
REMARK   34  A    between atoms: _71  and  _72
REMARK   35  A    between atoms: _74  and  _76
REMARK   36  A    between atoms: _76  and  _77
REMARK   37  A    between atoms: _80  and  _82
REMARK   38  A    between atoms: _82  and  _83
REMARK   39  A    between atoms: _82  and  _85
REMARK   40  A    between atoms: _85  and  _86
REMARK   41  A    between atoms: _86  and  _87
REMARK   42  A    between atoms: _90  and  _92
REMARK   43  A    between atoms: _92  and  _93
REMARK   44  A    between atoms: _92  and  _95
REMARK   45  A    between atoms: _95  and  _96
REMARK   46  A    between atoms: _98  and  _100
REMARK   47  A    between atoms: _100  and  _101
REMARK   48  A    between atoms: _100  and  _103
REMARK   49  A    between atoms: _103  and  _104
REMARK   50  A    between atoms: _109  and  _111
REMARK   51  A    between atoms: _111  and  _112
REMARK   52  A    between atoms: _111  and  _114
REMARK   53  A    between atoms: _114  and  _115
REMARK   54  A    between atoms: _115  and  _116
REMARK   55  A    between atoms: _119  and  _121
REMARK   56  A    between atoms: _121  and  _122
REMARK   57  A    between atoms: _121  and  _124
REMARK   58  A    between atoms: _124  and  _125
REMARK   59  A    between atoms: _127  and  _129
REMARK   60  A    between atoms: _129  and  _130
REMARK   61  A    between atoms: _129  and  _132
REMARK   62  A    between atoms: _132  and  _133
REMARK   63  A    between atoms: _143  and  _145
REMARK   64  A    between atoms: _145  and  _146
REMARK   65  A    between atoms: _145  and  _148
REMARK   66  A    between atoms: _148  and  _149
REMARK   67  A    between atoms: _154  and  _156
REMARK   68  A    between atoms: _156  and  _157
REMARK   69  A    between atoms: _159  and  _161
REMARK   70  A    between atoms: _161  and  _162
REMARK   71  A    between atoms: _161  and  _164
REMARK   72  A    between atoms: _164  and  _165
REMARK   73  A    between atoms: _165  and  _166
REMARK   74  A    between atoms: _168  and  _170
REMARK   75  A    between atoms: _170  and  _171
REMARK   76  A    between atoms: _170  and  _173
REMARK   77  A    between atoms: _173  and  _174
REMARK   78  A    between atoms: _177  and  _179
REMARK   79  A    between atoms: _179  and  _180
REMARK   80  A    between atoms: _183  and  _185
REMARK   81  A    between atoms: _185  and  _186
REMARK   82  A    between atoms: _185  and  _188
REMARK   83  A    between atoms: _188  and  _189
REMARK   84  A    between atoms: _192  and  _194
REMARK   85  A    between atoms: _194  and  _195
REMARK   86  A    between atoms: _194  and  _197
REMARK   87  A    between atoms: _197  and  _198
REMARK   88  A    between atoms: _200  and  _202
REMARK   89  A    between atoms: _202  and  _203
REMARK   90  A    between atoms: _202  and  _205
REMARK   91  A    between atoms: _205  and  _206
REMARK   92  A    between atoms: _209  and  _211
REMARK   93  A    between atoms: _211  and  _212
REMARK   94  A    between atoms: _215  and  _217
REMARK   95  A    between atoms: _217  and  _218
REMARK   96  A    between atoms: _217  and  _220
REMARK   97  A    between atoms: _220  and  _221
REMARK   98  A    between atoms: _221  and  _222
REMARK   99  A    between atoms: _226  and  _227
REMARK  100  A    between atoms: _232  and  _234
REMARK  101  A    between atoms: _234  and  _235
REMARK  102  A    between atoms: _234  and  _237
REMARK  103  A    between atoms: _237  and  _238
REMARK  104  A    between atoms: _241  and  _243
REMARK  105  A    between atoms: _243  and  _244
REMARK  106  A    between atoms: _243  and  _246
REMARK  107  A    between atoms: _246  and  _247
REMARK  108  A    between atoms: _250  and  _252
REMARK  109  A    between atoms: _252  and  _253
REMARK  110  A    between atoms: _252  and  _255
REMARK  111  A    between atoms: _255  and  _256
REMARK  112  A    between atoms: _258  and  _260
REMARK  113  A    between atoms: _260  and  _261
REMARK  114  A    between atoms: _260  and  _263
REMARK  115  A    between atoms: _263  and  _264
REMARK  116  A    between atoms: _266  and  _268
REMARK  117  A    between atoms: _268  and  _269
REMARK  118  A    between atoms: _271  and  _273
REMARK  119  A    between atoms: _273  and  _274
REMARK  120  A    between atoms: _276  and  _278
REMARK  121  A    between atoms: _278  and  _279
REMARK  122  A    between atoms: _278  and  _281
REMARK  123  A    between atoms: _281  and  _282
REMARK  124  A    between atoms: _285  and  _287
REMARK  125  A    between atoms: _287  and  _288
REMARK  126  A    between atoms: _287  and  _290
REMARK  127  A    between atoms: _290  and  _291
REMARK  128  A    between atoms: _291  and  _292
REMARK  129  A    between atoms: _295  and  _297
REMARK  130  A    between atoms: _297  and  _298
REMARK  131  A    between atoms: _301  and  _303
REMARK  132  A    between atoms: _303  and  _304
REMARK  133  A    between atoms: _303  and  _306
REMARK  134  A    between atoms: _306  and  _307
REMARK  135  A    between atoms: _307  and  _308
REMARK  136  A    between atoms: _313  and  _315
REMARK  137  A    between atoms: _315  and  _316
REMARK  138  A    between atoms: _315  and  _318
REMARK  139  A    between atoms: _318  and  _319
REMARK  140  A    between atoms: _322  and  _324
REMARK  141  A    between atoms: _324  and  _325
REMARK  142  A    between atoms: _327  and  _329
REMARK  143  A    between atoms: _329  and  _330
REMARK  144  A    between atoms: _329  and  _332
REMARK  145  A    between atoms: _332  and  _333
REMARK  146  A    between atoms: _336  and  _338
REMARK  147  A    between atoms: _338  and  _339
REMARK  148  A    between atoms: _338  and  _341
REMARK  149  A    between atoms: _341  and  _342
REMARK  150  A    between atoms: _345  and  _347
REMARK  151  A    between atoms: _347  and  _348
REMARK  152  A    between atoms: _347  and  _350
REMARK  153  A    between atoms: _350  and  _351
REMARK  154  A    between atoms: _353  and  _355
REMARK  155  A    between atoms: _355  and  _356
REMARK  156  A    between atoms: _355  and  _358
REMARK  157  A    between atoms: _358  and  _359
REMARK  158  A    between atoms: _359  and  _360
REMARK  159  A    between atoms: _360  and  _361
REMARK  160  A    between atoms: _361  and  _362
REMARK  161  A    between atoms: _367  and  _368
REMARK  162  A    between atoms: _373  and  _375
REMARK  163  A    between atoms: _375  and  _376
REMARK  164  A    between atoms: _375  and  _378
REMARK  165  A    between atoms: _378  and  _379
REMARK  166  A    between atoms: _382  and  _384
REMARK  167  A    between atoms: _384  and  _385
REMARK  168  A    between atoms: _388  and  _390
REMARK  169  A    between atoms: _390  and  _391
REMARK  170  A    between atoms: _390  and  _393
REMARK  171  A    between atoms: _393  and  _394
REMARK  172  A    between atoms: _399  and  _401
REMARK  173  A    between atoms: _401  and  _402
REMARK  174  A    between atoms: _401  and  _404
REMARK  175  A    between atoms: _407  and  _409
REMARK  176  A    between atoms: _409  and  _410
REMARK  177  A    between atoms: _409  and  _412
REMARK  178  A    between atoms: _412  and  _413
REMARK  179  A    between atoms: _413  and  _414
REMARK  180  A    between atoms: _414  and  _415
REMARK  181  A    between atoms: _424  and  _426
REMARK  182  A    between atoms: _426  and  _427
REMARK  183  A    between atoms: _426  and  _429
REMARK  184  A    between atoms: _429  and  _430
REMARK  185  A    between atoms: _435  and  _437
REMARK  186  A    between atoms: _437  and  _438
REMARK  187  A    between atoms: _437  and  _440
REMARK  188  A    between atoms: _440  and  _441
REMARK  189  A    between atoms: _447  and  _449
REMARK  190  A    between atoms: _449  and  _450
REMARK  191  A    between atoms: _449  and  _452
REMARK  192  A    between atoms: _452  and  _453
REMARK  193  A    between atoms: _455  and  _457
REMARK  194  A    between atoms: _457  and  _458
REMARK  195  A    between atoms: _457  and  _460
REMARK  196  A    between atoms: _460  and  _461
REMARK  197  A    between atoms: _461  and  _462
REMARK  198  A    between atoms: _465  and  _467
REMARK  199  A    between atoms: _467  and  _468
REMARK  200  A    between atoms: _467  and  _470
REMARK  201  A    between atoms: _470  and  _471
REMARK  202  A    between atoms: _473  and  _475
REMARK  203  A    between atoms: _475  and  _476
REMARK  204  A    between atoms: _475  and  _478
REMARK  205  A    between atoms: _478  and  _479
REMARK  206  A    between atoms: _479  and  _480
REMARK  207  A    between atoms: _483  and  _485
REMARK  208  A    between atoms: _485  and  _486
REMARK  209  A    between atoms: _485  and  _488
REMARK  210  A    between atoms: _488  and  _489
REMARK  211  A    between atoms: _492  and  _494
REMARK  212  A    between atoms: _494  and  _495
REMARK  213  A    between atoms: _494  and  _497
REMARK  214  A    between atoms: _497  and  _498
REMARK  215  A    between atoms: _504  and  _506
REMARK  216  A    between atoms: _506  and  _507
REMARK  217  A    between atoms: _506  and  _509
REMARK  218  A    between atoms: _509  and  _510
REMARK  219  A    between atoms: _515  and  _516
REMARK  220  A    between atoms: _518  and  _520
REMARK  221  A    between atoms: _520  and  _521
REMARK  222  A    between atoms: _520  and  _523
REMARK  223  A    between atoms: _523  and  _524
REMARK  224  A    between atoms: _527  and  _529
REMARK  225  A    between atoms: _529  and  _530
REMARK  226  A    between atoms: _529  and  _532
REMARK  227  A    between atoms: _532  and  _533
REMARK  228  A    between atoms: _536  and  _538
REMARK  229  A    between atoms: _538  and  _539
REMARK  230  A    between atoms: _538  and  _541
REMARK  231  A    between atoms: _541  and  _542
REMARK  232  A    between atoms: _547  and  _549
REMARK  233  A    between atoms: _549  and  _550
REMARK  234  A    between atoms: _549  and  _552
REMARK                            x       y       z     vdW  Elec       q    Type
REMARK                         _______ _______ _______ _____ _____    ______ ____
ROOT
ATOM      1  O   HOH     1      17.326  49.762   9.263  0.00  0.00    +0.000 OA
ENDROOT
TORSDOF 0
REMARK  Name = ../refined-set-2016/1m0n/1m0n_pocket.pdb
REMARK  234 active torsions:
REMARK  status: ('A' for Active; 'I' for Inactive)
REMARK    1  A    between atoms: _1  and  _3
REMARK    2  A    between atoms: _3  and  _4
REMARK    3  A    between atoms: _3  and  _6
REMARK    4  A    between atoms: _6  and  _7
REMARK    5  A    between atoms: _10  and  _12
REMARK    6  A    between atoms: _12  and  _13
REMARK    7  A    between atoms: _12  and  _15
REMARK    8  A    between atoms: _15  and  _16
REMARK    9  A    between atoms: _18  and  _20
REMARK   10  A    between atoms: _20  and  _21
REMARK   11  A    between atoms: _23  and  _25
REMARK   12  A    between atoms: _25  and  _26
REMARK   13  A    between atoms: _25  and  _28
REMARK   14  A    between atoms: _28  and  _29
REMARK   15  A    between atoms: _29  and  _30
REMARK   16  A    between atoms: _35  and  _37
REMARK   17  A    between atoms: _37  and  _38
REMARK   18  A    between atoms: _37  and  _40
REMARK   19  A    between atoms: _40  and  _41
REMARK   20  A    between atoms: _41  and  _42
REMARK   21  A    between atoms: _44  and  _46
REMARK   22  A    between atoms: _46  and  _47
REMARK   23  A    between atoms: _46  and  _49
REMARK   24  A    between atoms: _49  and  _50
REMARK   25  A    between atoms: _52  and  _54
REMARK   26  A    between atoms: _54  and  _55
REMARK   27  A    between atoms: _54  and  _57
REMARK   28  A    between atoms: _57  and  _58
REMARK   29  A    between atoms: _60  and  _62
REMARK   30  A    between atoms: _62  and  _63
REMARK   31  A    between atoms: _62  and  _65
REMARK   32  A    between atoms: _65  and  _66
REMARK   33  A    between atoms: _69  and  _71
REMARK   34  A    between atoms: _71  and  _72
REMARK   35  A    between atoms: _74  and  _76
REMARK   36  A    between atoms: _76  and  _77
REMARK   37  A    between atoms: _80  and  _82
REMARK   38  A    between atoms: _82  and  _83
REMARK   39  A    between atoms: _82  and  _85
REMARK   40  A    between atoms: _85  and  _86
REMARK   41  A    between atoms: _86  and  _87
REMARK   42  A    between atoms: _90  and  _92
REMARK   43  A    between atoms: _92  and  _93
REMARK   44  A    between atoms: _92  and  _95
REMARK   45  A    between atoms: _95  and  _96
REMARK   46  A    between atoms: _98  and  _100
REMARK   47  A    between atoms: _100  and  _101
REMARK   48  A    between atoms: _100  and  _103
REMARK   49  A    between atoms: _103  and  _104
REMARK   50  A    between atoms: _109  and  _111
REMARK   51  A    between atoms: _111  and  _112
REMARK   52  A    between atoms: _111  and  _114
REMARK   53  A    between atoms: _114  and  _115
REMARK   54  A    between atoms: _115  and  _116
REMARK   55  A    between atoms: _119  and  _121
REMARK   56  A    between atoms: _121  and  _122
REMARK   57  A    between atoms: _121  and  _124
REMARK   58  A    between atoms: _124  and  _125
REMARK   59  A    between atoms: _127  and  _129
REMARK   60  A    between atoms: _129  and  _130
REMARK   61  A    between atoms: _129  and  _132
REMARK   62  A    between atoms: _132  and  _133
REMARK   63  A    between atoms: _143  and  _145
REMARK   64  A    between atoms: _145  and  _146
REMARK   65  A    between atoms: _145  and  _148
REMARK   66  A    between atoms: _148  and  _149
REMARK   67  A    between atoms: _154  and  _156
REMARK   68  A    between atoms: _156  and  _157
REMARK   69  A    between atoms: _159  and  _161
REMARK   70  A    between atoms: _161  and  _162
REMARK   71  A    between atoms: _161  and  _164
REMARK   72  A    between atoms: _164  and  _165
REMARK   73  A    between atoms: _165  and  _166
REMARK   74  A    between atoms: _168  and  _170
REMARK   75  A    between atoms: _170  and  _171
REMARK   76  A    between atoms: _170  and  _173
REMARK   77  A    between atoms: _173  and  _174
REMARK   78  A    between atoms: _177  and  _179
REMARK   79  A    between atoms: _179  and  _180
REMARK   80  A    between atoms: _183  and  _185
REMARK   81  A    between atoms: _185  and  _186
REMARK   82  A    between atoms: _185  and  _188
REMARK   83  A    between atoms: _188  and  _189
REMARK   84  A    between atoms: _192  and  _194
REMARK   85  A    between atoms: _194  and  _195
REMARK   86  A    between atoms: _194  and  _197
REMARK   87  A    between atoms: _197  and  _198
REMARK   88  A    between atoms: _200  and  _202
REMARK   89  A    between atoms: _202  and  _203
REMARK   90  A    between atoms: _202  and  _205
REMARK   91  A    between atoms: _205  and  _206
REMARK   92  A    between atoms: _209  and  _211
REMARK   93  A    between atoms: _211  and  _212
REMARK   94  A    between atoms: _215  and  _217
REMARK   95  A    between atoms: _217  and  _218
REMARK   96  A    between atoms: _217  and  _220
REMARK   97  A    between atoms: _220  and  _221
REMARK   98  A    between atoms: _221  and  _222
REMARK   99  A    between atoms: _226  and  _227
REMARK  100  A    between atoms: _232  and  _234
REMARK  101  A    between atoms: _234  and  _235
REMARK  102  A    between atoms: _234  and  _237
REMARK  103  A    between atoms: _237  and  _238
REMARK  104  A    between atoms: _241  and  _243
REMARK  105  A    between atoms: _243  and  _244
REMARK  106  A    between atoms: _243  and  _246
REMARK  107  A    between atoms: _246  and  _247
REMARK  108  A    between atoms: _250  and  _252
REMARK  109  A    between atoms: _252  and  _253
REMARK  110  A    between atoms: _252  and  _255
REMARK  111  A    between atoms: _255  and  _256
REMARK  112  A    between atoms: _258  and  _260
REMARK  113  A    between atoms: _260  and  _261
REMARK  114  A    between atoms: _260  and  _263
REMARK  115  A    between atoms: _263  and  _264
REMARK  116  A    between atoms: _266  and  _268
REMARK  117  A    between atoms: _268  and  _269
REMARK  118  A    between atoms: _271  and  _273
REMARK  119  A    between atoms: _273  and  _274
REMARK  120  A    between atoms: _276  and  _278
REMARK  121  A    between atoms: _278  and  _279
REMARK  122  A    between atoms: _278  and  _281
REMARK  123  A    between atoms: _281  and  _282
REMARK  124  A    between atoms: _285  and  _287
REMARK  125  A    between atoms: _287  and  _288
REMARK  126  A    between atoms: _287  and  _290
REMARK  127  A    between atoms: _290  and  _291
REMARK  128  A    between atoms: _291  and  _292
REMARK  129  A    between atoms: _295  and  _297
REMARK  130  A    between atoms: _297  and  _298
REMARK  131  A    between atoms: _301  and  _303
REMARK  132  A    between atoms: _303  and  _304
REMARK  133  A    between atoms: _303  and  _306
REMARK  134  A    between atoms: _306  and  _307
REMARK  135  A    between atoms: _307  and  _308
REMARK  136  A    between atoms: _313  and  _315
REMARK  137  A    between atoms: _315  and  _316
REMARK  138  A    between atoms: _315  and  _318
REMARK  139  A    between atoms: _318  and  _319
REMARK  140  A    between atoms: _322  and  _324
REMARK  141  A    between atoms: _324  and  _325
REMARK  142  A    between atoms: _327  and  _329
REMARK  143  A    between atoms: _329  and  _330
REMARK  144  A    between atoms: _329  and  _332
REMARK  145  A    between atoms: _332  and  _333
REMARK  146  A    between atoms: _336  and  _338
REMARK  147  A    between atoms: _338  and  _339
REMARK  148  A    between atoms: _338  and  _341
REMARK  149  A    between atoms: _341  and  _342
REMARK  150  A    between atoms: _345  and  _347
REMARK  151  A    between atoms: _347  and  _348
REMARK  152  A    between atoms: _347  and  _350
REMARK  153  A    between atoms: _350  and  _351
REMARK  154  A    between atoms: _353  and  _355
REMARK  155  A    between atoms: _355  and  _356
REMARK  156  A    between atoms: _355  and  _358
REMARK  157  A    between atoms: _358  and  _359
REMARK  158  A    between atoms: _359  and  _360
REMARK  159  A    between atoms: _360  and  _361
REMARK  160  A    between atoms: _361  and  _362
REMARK  161  A    between atoms: _367  and  _368
REMARK  162  A    between atoms: _373  and  _375
REMARK  163  A    between atoms: _375  and  _376
REMARK  164  A    between atoms: _375  and  _378
REMARK  165  A    between atoms: _378  and  _379
REMARK  166  A    between atoms: _382  and  _384
REMARK  167  A    between atoms: _384  and  _385
REMARK  168  A    between atoms: _388  and  _390
REMARK  169  A    between atoms: _390  and  _391
REMARK  170  A    between atoms: _390  and  _393
REMARK  171  A    between atoms: _393  and  _394
REMARK  172  A    between atoms: _399  and  _401
REMARK  173  A    between atoms: _401  and  _402
REMARK  174  A    between atoms: _401  and  _404
REMARK  175  A    between atoms: _407  and  _409
REMARK  176  A    between atoms: _409  and  _410
REMARK  177  A    between atoms: _409  and  _412
REMARK  178  A    between atoms: _412  and  _413
REMARK  179  A    between atoms: _413  and  _414
REMARK  180  A    between atoms: _414  and  _415
REMARK  181  A    between atoms: _424  and  _426
REMARK  182  A    between atoms: _426  and  _427
REMARK  183  A    between atoms: _426  and  _429
REMARK  184  A    between atoms: _429  and  _430
REMARK  185  A    between atoms: _435  and  _437
REMARK  186  A    between atoms: _437  and  _438
REMARK  187  A    between atoms: _437  and  _440
REMARK  188  A    between atoms: _440  and  _441
REMARK  189  A    between atoms: _447  and  _449
REMARK  190  A    between atoms: _449  and  _450
REMARK  191  A    between atoms: _449  and  _452
REMARK  192  A    between atoms: _452  and  _453
REMARK  193  A    between atoms: _455  and  _457
REMARK  194  A    between atoms: _457  and  _458
REMARK  195  A    between atoms: _457  and  _460
REMARK  196  A    between atoms: _460  and  _461
REMARK  197  A    between atoms: _461  and  _462
REMARK  198  A    between atoms: _465  and  _467
REMARK  199  A    between atoms: _467  and  _468
REMARK  200  A    between atoms: _467  and  _470
REMARK  201  A    between atoms: _470  and  _471
REMARK  202  A    between atoms: _473  and  _475
REMARK  203  A    between atoms: _475  and  _476
REMARK  204  A    between atoms: _475  and  _478
REMARK  205  A    between atoms: _478  and  _479
REMARK  206  A    between atoms: _479  and  _480
REMARK  207  A    between atoms: _483  and  _485
REMARK  208  A    between atoms: _485  and  _486
REMARK  209  A    between atoms: _485  and  _488
REMARK  210  A    between atoms: _488  and  _489
REMARK  211  A    between atoms: _492  and  _494
REMARK  212  A    between atoms: _494  and  _495
REMARK  213  A    between atoms: _494  and  _497
REMARK  214  A    between atoms: _497  and  _498
REMARK  215  A    between atoms: _504  and  _506
REMARK  216  A    between atoms: _506  and  _507
REMARK  217  A    between atoms: _506  and  _509
REMARK  218  A    between atoms: _509  and  _510
REMARK  219  A    between atoms: _515  and  _516
REMARK  220  A    between atoms: _518  and  _520
REMARK  221  A    between atoms: _520  and  _521
REMARK  222  A    between atoms: _520  and  _523
REMARK  223  A    between atoms: _523  and  _524
REMARK  224  A    between atoms: _527  and  _529
REMARK  225  A    between atoms: _529  and  _530
REMARK  226  A    between atoms: _529  and  _532
REMARK  227  A    between atoms: _532  and  _533
REMARK  228  A    between atoms: _536  and  _538
REMARK  229  A    between atoms: _538  and  _539
REMARK  230  A    between atoms: _538  and  _541
REMARK  231  A    between atoms: _541  and  _542
REMARK  232  A    between atoms: _547  and  _549
REMARK  233  A    between atoms: _549  and  _550
REMARK  234  A    between atoms: _549  and  _552
REMARK                            x       y       z     vdW  Elec       q    Type
REMARK                         _______ _______ _______ _____ _____    ______ ____
ROOT
ATOM      1  O   HOH     1      14.069  55.369  16.952  0.00  0.00    +0.000 OA
ENDROOT
TORSDOF 0
REMARK  Name = ../refined-set-2016/1m0n/1m0n_pocket.pdb
REMARK  234 active torsions:
REMARK  status: ('A' for Active; 'I' for Inactive)
REMARK    1  A    between atoms: _1  and  _3
REMARK    2  A    between atoms: _3  and  _4
REMARK    3  A    between atoms: _3  and  _6
REMARK    4  A    between atoms: _6  and  _7
REMARK    5  A    between atoms: _10  and  _12
REMARK    6  A    between atoms: _12  and  _13
REMARK    7  A    between atoms: _12  and  _15
REMARK    8  A    between atoms: _15  and  _16
REMARK    9  A    between atoms: _18  and  _20
REMARK   10  A    between atoms: _20  and  _21
REMARK   11  A    between atoms: _23  and  _25
REMARK   12  A    between atoms: _25  and  _26
REMARK   13  A    between atoms: _25  and  _28
REMARK   14  A    between atoms: _28  and  _29
REMARK   15  A    between atoms: _29  and  _30
REMARK   16  A    between atoms: _35  and  _37
REMARK   17  A    between atoms: _37  and  _38
REMARK   18  A    between atoms: _37  and  _40
REMARK   19  A    between atoms: _40  and  _41
REMARK   20  A    between atoms: _41  and  _42
REMARK   21  A    between atoms: _44  and  _46
REMARK   22  A    between atoms: _46  and  _47
REMARK   23  A    between atoms: _46  and  _49
REMARK   24  A    between atoms: _49  and  _50
REMARK   25  A    between atoms: _52  and  _54
REMARK   26  A    between atoms: _54  and  _55
REMARK   27  A    between atoms: _54  and  _57
REMARK   28  A    between atoms: _57  and  _58
REMARK   29  A    between atoms: _60  and  _62
REMARK   30  A    between atoms: _62  and  _63
REMARK   31  A    between atoms: _62  and  _65
REMARK   32  A    between atoms: _65  and  _66
REMARK   33  A    between atoms: _69  and  _71
REMARK   34  A    between atoms: _71  and  _72
REMARK   35  A    between atoms: _74  and  _76
REMARK   36  A    between atoms: _76  and  _77
REMARK   37  A    between atoms: _80  and  _82
REMARK   38  A    between atoms: _82  and  _83
REMARK   39  A    between atoms: _82  and  _85
REMARK   40  A    between atoms: _85  and  _86
REMARK   41  A    between atoms: _86  and  _87
REMARK   42  A    between atoms: _90  and  _92
REMARK   43  A    between atoms: _92  and  _93
REMARK   44  A    between atoms: _92  and  _95
REMARK   45  A    between atoms: _95  and  _96
REMARK   46  A    between atoms: _98  and  _100
REMARK   47  A    between atoms: _100  and  _101
REMARK   48  A    between atoms: _100  and  _103
REMARK   49  A    between atoms: _103  and  _104
REMARK   50  A    between atoms: _109  and  _111
REMARK   51  A    between atoms: _111  and  _112
REMARK   52  A    between atoms: _111  and  _114
REMARK   53  A    between atoms: _114  and  _115
REMARK   54  A    between atoms: _115  and  _116
REMARK   55  A    between atoms: _119  and  _121
REMARK   56  A    between atoms: _121  and  _122
REMARK   57  A    between atoms: _121  and  _124
REMARK   58  A    between atoms: _124  and  _125
REMARK   59  A    between atoms: _127  and  _129
REMARK   60  A    between atoms: _129  and  _130
REMARK   61  A    between atoms: _129  and  _132
REMARK   62  A    between atoms: _132  and  _133
REMARK   63  A    between atoms: _143  and  _145
REMARK   64  A    between atoms: _145  and  _146
REMARK   65  A    between atoms: _145  and  _148
REMARK   66  A    between atoms: _148  and  _149
REMARK   67  A    between atoms: _154  and  _156
REMARK   68  A    between atoms: _156  and  _157
REMARK   69  A    between atoms: _159  and  _161
REMARK   70  A    between atoms: _161  and  _162
REMARK   71  A    between atoms: _161  and  _164
REMARK   72  A    between atoms: _164  and  _165
REMARK   73  A    between atoms: _165  and  _166
REMARK   74  A    between atoms: _168  and  _170
REMARK   75  A    between atoms: _170  and  _171
REMARK   76  A    between atoms: _170  and  _173
REMARK   77  A    between atoms: _173  and  _174
REMARK   78  A    between atoms: _177  and  _179
REMARK   79  A    between atoms: _179  and  _180
REMARK   80  A    between atoms: _183  and  _185
REMARK   81  A    between atoms: _185  and  _186
REMARK   82  A    between atoms: _185  and  _188
REMARK   83  A    between atoms: _188  and  _189
REMARK   84  A    between atoms: _192  and  _194
REMARK   85  A    between atoms: _194  and  _195
REMARK   86  A    between atoms: _194  and  _197
REMARK   87  A    between atoms: _197  and  _198
REMARK   88  A    between atoms: _200  and  _202
REMARK   89  A    between atoms: _202  and  _203
REMARK   90  A    between atoms: _202  and  _205
REMARK   91  A    between atoms: _205  and  _206
REMARK   92  A    between atoms: _209  and  _211
REMARK   93  A    between atoms: _211  and  _212
REMARK   94  A    between atoms: _215  and  _217
REMARK   95  A    between atoms: _217  and  _218
REMARK   96  A    between atoms: _217  and  _220
REMARK   97  A    between atoms: _220  and  _221
REMARK   98  A    between atoms: _221  and  _222
REMARK   99  A    between atoms: _226  and  _227
REMARK  100  A    between atoms: _232  and  _234
REMARK  101  A    between atoms: _234  and  _235
REMARK  102  A    between atoms: _234  and  _237
REMARK  103  A    between atoms: _237  and  _238
REMARK  104  A    between atoms: _241  and  _243
REMARK  105  A    between atoms: _243  and  _244
REMARK  106  A    between atoms: _243  and  _246
REMARK  107  A    between atoms: _246  and  _247
REMARK  108  A    between atoms: _250  and  _252
REMARK  109  A    between atoms: _252  and  _253
REMARK  110  A    between atoms: _252  and  _255
REMARK  111  A    between atoms: _255  and  _256
REMARK  112  A    between atoms: _258  and  _260
REMARK  113  A    between atoms: _260  and  _261
REMARK  114  A    between atoms: _260  and  _263
REMARK  115  A    between atoms: _263  and  _264
REMARK  116  A    between atoms: _266  and  _268
REMARK  117  A    between atoms: _268  and  _269
REMARK  118  A    between atoms: _271  and  _273
REMARK  119  A    between atoms: _273  and  _274
REMARK  120  A    between atoms: _276  and  _278
REMARK  121  A    between atoms: _278  and  _279
REMARK  122  A    between atoms: _278  and  _281
REMARK  123  A    between atoms: _281  and  _282
REMARK  124  A    between atoms: _285  and  _287
REMARK  125  A    between atoms: _287  and  _288
REMARK  126  A    between atoms: _287  and  _290
REMARK  127  A    between atoms: _290  and  _291
REMARK  128  A    between atoms: _291  and  _292
REMARK  129  A    between atoms: _295  and  _297
REMARK  130  A    between atoms: _297  and  _298
REMARK  131  A    between atoms: _301  and  _303
REMARK  132  A    between atoms: _303  and  _304
REMARK  133  A    between atoms: _303  and  _306
REMARK  134  A    between atoms: _306  and  _307
REMARK  135  A    between atoms: _307  and  _308
REMARK  136  A    between atoms: _313  and  _315
REMARK  137  A    between atoms: _315  and  _316
REMARK  138  A    between atoms: _315  and  _318
REMARK  139  A    between atoms: _318  and  _319
REMARK  140  A    between atoms: _322  and  _324
REMARK  141  A    between atoms: _324  and  _325
REMARK  142  A    between atoms: _327  and  _329
REMARK  143  A    between atoms: _329  and  _330
REMARK  144  A    between atoms: _329  and  _332
REMARK  145  A    between atoms: _332  and  _333
REMARK  146  A    between atoms: _336  and  _338
REMARK  147  A    between atoms: _338  and  _339
REMARK  148  A    between atoms: _338  and  _341
REMARK  149  A    between atoms: _341  and  _342
REMARK  150  A    between atoms: _345  and  _347
REMARK  151  A    between atoms: _347  and  _348
REMARK  152  A    between atoms: _347  and  _350
REMARK  153  A    between atoms: _350  and  _351
REMARK  154  A    between atoms: _353  and  _355
REMARK  155  A    between atoms: _355  and  _356
REMARK  156  A    between atoms: _355  and  _358
REMARK  157  A    between atoms: _358  and  _359
REMARK  158  A    between atoms: _359  and  _360
REMARK  159  A    between atoms: _360  and  _361
REMARK  160  A    between atoms: _361  and  _362
REMARK  161  A    between atoms: _367  and  _368
REMARK  162  A    between atoms: _373  and  _375
REMARK  163  A    between atoms: _375  and  _376
REMARK  164  A    between atoms: _375  and  _378
REMARK  165  A    between atoms: _378  and  _379
REMARK  166  A    between atoms: _382  and  _384
REMARK  167  A    between atoms: _384  and  _385
REMARK  168  A    between atoms: _388  and  _390
REMARK  169  A    between atoms: _390  and  _391
REMARK  170  A    between atoms: _390  and  _393
REMARK  171  A    between atoms: _393  and  _394
REMARK  172  A    between atoms: _399  and  _401
REMARK  173  A    between atoms: _401  and  _402
REMARK  174  A    between atoms: _401  and  _404
REMARK  175  A    between atoms: _407  and  _409
REMARK  176  A    between atoms: _409  and  _410
REMARK  177  A    between atoms: _409  and  _412
REMARK  178  A    between atoms: _412  and  _413
REMARK  179  A    between atoms: _413  and  _414
REMARK  180  A    between atoms: _414  and  _415
REMARK  181  A    between atoms: _424  and  _426
REMARK  182  A    between atoms: _426  and  _427
REMARK  183  A    between atoms: _426  and  _429
REMARK  184  A    between atoms: _429  and  _430
REMARK  185  A    between atoms: _435  and  _437
REMARK  186  A    between atoms: _437  and  _438
REMARK  187  A    between atoms: _437  and  _440
REMARK  188  A    between atoms: _440  and  _441
REMARK  189  A    between atoms: _447  and  _449
REMARK  190  A    between atoms: _449  and  _450
REMARK  191  A    between atoms: _449  and  _452
REMARK  192  A    between atoms: _452  and  _453
REMARK  193  A    between atoms: _455  and  _457
REMARK  194  A    between atoms: _457  and  _458
REMARK  195  A    between atoms: _457  and  _460
REMARK  196  A    between atoms: _460  and  _461
REMARK  197  A    between atoms: _461  and  _462
REMARK  198  A    between atoms: _465  and  _467
REMARK  199  A    between atoms: _467  and  _468
REMARK  200  A    between atoms: _467  and  _470
REMARK  201  A    between atoms: _470  and  _471
REMARK  202  A    between atoms: _473  and  _475
REMARK  203  A    between atoms: _475  and  _476
REMARK  204  A    between atoms: _475  and  _478
REMARK  205  A    between atoms: _478  and  _479
REMARK  206  A    between atoms: _479  and  _480
REMARK  207  A    between atoms: _483  and  _485
REMARK  208  A    between atoms: _485  and  _486
REMARK  209  A    between atoms: _485  and  _488
REMARK  210  A    between atoms: _488  and  _489
REMARK  211  A    between atoms: _492  and  _494
REMARK  212  A    between atoms: _494  and  _495
REMARK  213  A    between atoms: _494  and  _497
REMARK  214  A    between atoms: _497  and  _498
REMARK  215  A    between atoms: _504  and  _506
REMARK  216  A    between atoms: _506  and  _507
REMARK  217  A    between atoms: _506  and  _509
REMARK  218  A    between atoms: _509  and  _510
REMARK  219  A    between atoms: _515  and  _516
REMARK  220  A    between atoms: _518  and  _520
REMARK  221  A    between atoms: _520  and  _521
REMARK  222  A    between atoms: _520  and  _523
REMARK  223  A    between atoms: _523  and  _524
REMARK  224  A    between atoms: _527  and  _529
REMARK  225  A    between atoms: _529  and  _530
REMARK  226  A    between atoms: _529  and  _532
REMARK  227  A    between atoms: _532  and  _533
REMARK  228  A    between atoms: _536  and  _538
REMARK  229  A    between atoms: _538  and  _539
REMARK  230  A    between atoms: _538  and  _541
REMARK  231  A    between atoms: _541  and  _542
REMARK  232  A    between atoms: _547  and  _549
REMARK  233  A    between atoms: _549  and  _550
REMARK  234  A    between atoms: _549  and  _552
REMARK                            x       y       z     vdW  Elec       q    Type
REMARK                         _______ _______ _______ _____ _____    ______ ____
ROOT
ATOM      1  O   HOH     1      12.072  53.345  11.380  0.00  0.00    +0.000 OA
ENDROOT
TORSDOF 0
REMARK  Name = ../refined-set-2016/1m0n/1m0n_pocket.pdb
REMARK  234 active torsions:
REMARK  status: ('A' for Active; 'I' for Inactive)
REMARK    1  A    between atoms: _1  and  _3
REMARK    2  A    between atoms: _3  and  _4
REMARK    3  A    between atoms: _3  and  _6
REMARK    4  A    between atoms: _6  and  _7
REMARK    5  A    between atoms: _10  and  _12
REMARK    6  A    between atoms: _12  and  _13
REMARK    7  A    between atoms: _12  and  _15
REMARK    8  A    between atoms: _15  and  _16
REMARK    9  A    between atoms: _18  and  _20
REMARK   10  A    between atoms: _20  and  _21
REMARK   11  A    between atoms: _23  and  _25
REMARK   12  A    between atoms: _25  and  _26
REMARK   13  A    between atoms: _25  and  _28
REMARK   14  A    between atoms: _28  and  _29
REMARK   15  A    between atoms: _29  and  _30
REMARK   16  A    between atoms: _35  and  _37
REMARK   17  A    between atoms: _37  and  _38
REMARK   18  A    between atoms: _37  and  _40
REMARK   19  A    between atoms: _40  and  _41
REMARK   20  A    between atoms: _41  and  _42
REMARK   21  A    between atoms: _44  and  _46
REMARK   22  A    between atoms: _46  and  _47
REMARK   23  A    between atoms: _46  and  _49
REMARK   24  A    between atoms: _49  and  _50
REMARK   25  A    between atoms: _52  and  _54
REMARK   26  A    between atoms: _54  and  _55
REMARK   27  A    between atoms: _54  and  _57
REMARK   28  A    between atoms: _57  and  _58
REMARK   29  A    between atoms: _60  and  _62
REMARK   30  A    between atoms: _62  and  _63
REMARK   31  A    between atoms: _62  and  _65
REMARK   32  A    between atoms: _65  and  _66
REMARK   33  A    between atoms: _69  and  _71
REMARK   34  A    between atoms: _71  and  _72
REMARK   35  A    between atoms: _74  and  _76
REMARK   36  A    between atoms: _76  and  _77
REMARK   37  A    between atoms: _80  and  _82
REMARK   38  A    between atoms: _82  and  _83
REMARK   39  A    between atoms: _82  and  _85
REMARK   40  A    between atoms: _85  and  _86
REMARK   41  A    between atoms: _86  and  _87
REMARK   42  A    between atoms: _90  and  _92
REMARK   43  A    between atoms: _92  and  _93
REMARK   44  A    between atoms: _92  and  _95
REMARK   45  A    between atoms: _95  and  _96
REMARK   46  A    between atoms: _98  and  _100
REMARK   47  A    between atoms: _100  and  _101
REMARK   48  A    between atoms: _100  and  _103
REMARK   49  A    between atoms: _103  and  _104
REMARK   50  A    between atoms: _109  and  _111
REMARK   51  A    between atoms: _111  and  _112
REMARK   52  A    between atoms: _111  and  _114
REMARK   53  A    between atoms: _114  and  _115
REMARK   54  A    between atoms: _115  and  _116
REMARK   55  A    between atoms: _119  and  _121
REMARK   56  A    between atoms: _121  and  _122
REMARK   57  A    between atoms: _121  and  _124
REMARK   58  A    between atoms: _124  and  _125
REMARK   59  A    between atoms: _127  and  _129
REMARK   60  A    between atoms: _129  and  _130
REMARK   61  A    between atoms: _129  and  _132
REMARK   62  A    between atoms: _132  and  _133
REMARK   63  A    between atoms: _143  and  _145
REMARK   64  A    between atoms: _145  and  _146
REMARK   65  A    between atoms: _145  and  _148
REMARK   66  A    between atoms: _148  and  _149
REMARK   67  A    between atoms: _154  and  _156
REMARK   68  A    between atoms: _156  and  _157
REMARK   69  A    between atoms: _159  and  _161
REMARK   70  A    between atoms: _161  and  _162
REMARK   71  A    between atoms: _161  and  _164
REMARK   72  A    between atoms: _164  and  _165
REMARK   73  A    between atoms: _165  and  _166
REMARK   74  A    between atoms: _168  and  _170
REMARK   75  A    between atoms: _170  and  _171
REMARK   76  A    between atoms: _170  and  _173
REMARK   77  A    between atoms: _173  and  _174
REMARK   78  A    between atoms: _177  and  _179
REMARK   79  A    between atoms: _179  and  _180
REMARK   80  A    between atoms: _183  and  _185
REMARK   81  A    between atoms: _185  and  _186
REMARK   82  A    between atoms: _185  and  _188
REMARK   83  A    between atoms: _188  and  _189
REMARK   84  A    between atoms: _192  and  _194
REMARK   85  A    between atoms: _194  and  _195
REMARK   86  A    between atoms: _194  and  _197
REMARK   87  A    between atoms: _197  and  _198
REMARK   88  A    between atoms: _200  and  _202
REMARK   89  A    between atoms: _202  and  _203
REMARK   90  A    between atoms: _202  and  _205
REMARK   91  A    between atoms: _205  and  _206
REMARK   92  A    between atoms: _209  and  _211
REMARK   93  A    between atoms: _211  and  _212
REMARK   94  A    between atoms: _215  and  _217
REMARK   95  A    between atoms: _217  and  _218
REMARK   96  A    between atoms: _217  and  _220
REMARK   97  A    between atoms: _220  and  _221
REMARK   98  A    between atoms: _221  and  _222
REMARK   99  A    between atoms: _226  and  _227
REMARK  100  A    between atoms: _232  and  _234
REMARK  101  A    between atoms: _234  and  _235
REMARK  102  A    between atoms: _234  and  _237
REMARK  103  A    between atoms: _237  and  _238
REMARK  104  A    between atoms: _241  and  _243
REMARK  105  A    between atoms: _243  and  _244
REMARK  106  A    between atoms: _243  and  _246
REMARK  107  A    between atoms: _246  and  _247
REMARK  108  A    between atoms: _250  and  _252
REMARK  109  A    between atoms: _252  and  _253
REMARK  110  A    between atoms: _252  and  _255
REMARK  111  A    between atoms: _255  and  _256
REMARK  112  A    between atoms: _258  and  _260
REMARK  113  A    between atoms: _260  and  _261
REMARK  114  A    between atoms: _260  and  _263
REMARK  115  A    between atoms: _263  and  _264
REMARK  116  A    between atoms: _266  and  _268
REMARK  117  A    between atoms: _268  and  _269
REMARK  118  A    between atoms: _271  and  _273
REMARK  119  A    between atoms: _273  and  _274
REMARK  120  A    between atoms: _276  and  _278
REMARK  121  A    between atoms: _278  and  _279
REMARK  122  A    between atoms: _278  and  _281
REMARK  123  A    between atoms: _281  and  _282
REMARK  124  A    between atoms: _285  and  _287
REMARK  125  A    between atoms: _287  and  _288
REMARK  126  A    between atoms: _287  and  _290
REMARK  127  A    between atoms: _290  and  _291
REMARK  128  A    between atoms: _291  and  _292
REMARK  129  A    between atoms: _295  and  _297
REMARK  130  A    between atoms: _297  and  _298
REMARK  131  A    between atoms: _301  and  _303
REMARK  132  A    between atoms: _303  and  _304
REMARK  133  A    between atoms: _303  and  _306
REMARK  134  A    between atoms: _306  and  _307
REMARK  135  A    between atoms: _307  and  _308
REMARK  136  A    between atoms: _313  and  _315
REMARK  137  A    between atoms: _315  and  _316
REMARK  138  A    between atoms: _315  and  _318
REMARK  139  A    between atoms: _318  and  _319
REMARK  140  A    between atoms: _322  and  _324
REMARK  141  A    between atoms: _324  and  _325
REMARK  142  A    between atoms: _327  and  _329
REMARK  143  A    between atoms: _329  and  _330
REMARK  144  A    between atoms: _329  and  _332
REMARK  145  A    between atoms: _332  and  _333
REMARK  146  A    between atoms: _336  and  _338
REMARK  147  A    between atoms: _338  and  _339
REMARK  148  A    between atoms: _338  and  _341
REMARK  149  A    between atoms: _341  and  _342
REMARK  150  A    between atoms: _345  and  _347
REMARK  151  A    between atoms: _347  and  _348
REMARK  152  A    between atoms: _347  and  _350
REMARK  153  A    between atoms: _350  and  _351
REMARK  154  A    between atoms: _353  and  _355
REMARK  155  A    between atoms: _355  and  _356
REMARK  156  A    between atoms: _355  and  _358
REMARK  157  A    between atoms: _358  and  _359
REMARK  158  A    between atoms: _359  and  _360
REMARK  159  A    between atoms: _360  and  _361
REMARK  160  A    between atoms: _361  and  _362
REMARK  161  A    between atoms: _367  and  _368
REMARK  162  A    between atoms: _373  and  _375
REMARK  163  A    between atoms: _375  and  _376
REMARK  164  A    between atoms: _375  and  _378
REMARK  165  A    between atoms: _378  and  _379
REMARK  166  A    between atoms: _382  and  _384
REMARK  167  A    between atoms: _384  and  _385
REMARK  168  A    between atoms: _388  and  _390
REMARK  169  A    between atoms: _390  and  _391
REMARK  170  A    between atoms: _390  and  _393
REMARK  171  A    between atoms: _393  and  _394
REMARK  172  A    between atoms: _399  and  _401
REMARK  173  A    between atoms: _401  and  _402
REMARK  174  A    between atoms: _401  and  _404
REMARK  175  A    between atoms: _407  and  _409
REMARK  176  A    between atoms: _409  and  _410
REMARK  177  A    between atoms: _409  and  _412
REMARK  178  A    between atoms: _412  and  _413
REMARK  179  A    between atoms: _413  and  _414
REMARK  180  A    between atoms: _414  and  _415
REMARK  181  A    between atoms: _424  and  _426
REMARK  182  A    between atoms: _426  and  _427
REMARK  183  A    between atoms: _426  and  _429
REMARK  184  A    between atoms: _429  and  _430
REMARK  185  A    between atoms: _435  and  _437
REMARK  186  A    between atoms: _437  and  _438
REMARK  187  A    between atoms: _437  and  _440
REMARK  188  A    between atoms: _440  and  _441
REMARK  189  A    between atoms: _447  and  _449
REMARK  190  A    between atoms: _449  and  _450
REMARK  191  A    between atoms: _449  and  _452
REMARK  192  A    between atoms: _452  and  _453
REMARK  193  A    between atoms: _455  and  _457
REMARK  194  A    between atoms: _457  and  _458
REMARK  195  A    between atoms: _457  and  _460
REMARK  196  A    between atoms: _460  and  _461
REMARK  197  A    between atoms: _461  and  _462
REMARK  198  A    between atoms: _465  and  _467
REMARK  199  A    between atoms: _467  and  _468
REMARK  200  A    between atoms: _467  and  _470
REMARK  201  A    between atoms: _470  and  _471
REMARK  202  A    between atoms: _473  and  _475
REMARK  203  A    between atoms: _475  and  _476
REMARK  204  A    between atoms: _475  and  _478
REMARK  205  A    between atoms: _478  and  _479
REMARK  206  A    between atoms: _479  and  _480
REMARK  207  A    between atoms: _483  and  _485
REMARK  208  A    between atoms: _485  and  _486
REMARK  209  A    between atoms: _485  and  _488
REMARK  210  A    between atoms: _488  and  _489
REMARK  211  A    between atoms: _492  and  _494
REMARK  212  A    between atoms: _494  and  _495
REMARK  213  A    between atoms: _494  and  _497
REMARK  214  A    between atoms: _497  and  _498
REMARK  215  A    between atoms: _504  and  _506
REMARK  216  A    between atoms: _506  and  _507
REMARK  217  A    between atoms: _506  and  _509
REMARK  218  A    between atoms: _509  and  _510
REMARK  219  A    between atoms: _515  and  _516
REMARK  220  A    between atoms: _518  and  _520
REMARK  221  A    between atoms: _520  and  _521
REMARK  222  A    between atoms: _520  and  _523
REMARK  223  A    between atoms: _523  and  _524
REMARK  224  A    between atoms: _527  and  _529
REMARK  225  A    between atoms: _529  and  _530
REMARK  226  A    between atoms: _529  and  _532
REMARK  227  A    between atoms: _532  and  _533
REMARK  228  A    between atoms: _536  and  _538
REMARK  229  A    between atoms: _538  and  _539
REMARK  230  A    between atoms: _538  and  _541
REMARK  231  A    between atoms: _541  and  _542
REMARK  232  A    between atoms: _547  and  _549
REMARK  233  A    between atoms: _549  and  _550
REMARK  234  A    between atoms: _549  and  _552
REMARK                            x       y       z     vdW  Elec       q    Type
REMARK                         _______ _______ _______ _____ _____    ______ ____
ROOT
ATOM      1  O   HOH     1      13.488  50.972  24.718  0.00  0.00    +0.000 OA
ENDROOT
TORSDOF 0
REMARK  Name = ../refined-set-2016/1m0n/1m0n_pocket.pdb
REMARK  234 active torsions:
REMARK  status: ('A' for Active; 'I' for Inactive)
REMARK    1  A    between atoms: _1  and  _3
REMARK    2  A    between atoms: _3  and  _4
REMARK    3  A    between atoms: _3  and  _6
REMARK    4  A    between atoms: _6  and  _7
REMARK    5  A    between atoms: _10  and  _12
REMARK    6  A    between atoms: _12  and  _13
REMARK    7  A    between atoms: _12  and  _15
REMARK    8  A    between atoms: _15  and  _16
REMARK    9  A    between atoms: _18  and  _20
REMARK   10  A    between atoms: _20  and  _21
REMARK   11  A    between atoms: _23  and  _25
REMARK   12  A    between atoms: _25  and  _26
REMARK   13  A    between atoms: _25  and  _28
REMARK   14  A    between atoms: _28  and  _29
REMARK   15  A    between atoms: _29  and  _30
REMARK   16  A    between atoms: _35  and  _37
REMARK   17  A    between atoms: _37  and  _38
REMARK   18  A    between atoms: _37  and  _40
REMARK   19  A    between atoms: _40  and  _41
REMARK   20  A    between atoms: _41  and  _42
REMARK   21  A    between atoms: _44  and  _46
REMARK   22  A    between atoms: _46  and  _47
REMARK   23  A    between atoms: _46  and  _49
REMARK   24  A    between atoms: _49  and  _50
REMARK   25  A    between atoms: _52  and  _54
REMARK   26  A    between atoms: _54  and  _55
REMARK   27  A    between atoms: _54  and  _57
REMARK   28  A    between atoms: _57  and  _58
REMARK   29  A    between atoms: _60  and  _62
REMARK   30  A    between atoms: _62  and  _63
REMARK   31  A    between atoms: _62  and  _65
REMARK   32  A    between atoms: _65  and  _66
REMARK   33  A    between atoms: _69  and  _71
REMARK   34  A    between atoms: _71  and  _72
REMARK   35  A    between atoms: _74  and  _76
REMARK   36  A    between atoms: _76  and  _77
REMARK   37  A    between atoms: _80  and  _82
REMARK   38  A    between atoms: _82  and  _83
REMARK   39  A    between atoms: _82  and  _85
REMARK   40  A    between atoms: _85  and  _86
REMARK   41  A    between atoms: _86  and  _87
REMARK   42  A    between atoms: _90  and  _92
REMARK   43  A    between atoms: _92  and  _93
REMARK   44  A    between atoms: _92  and  _95
REMARK   45  A    between atoms: _95  and  _96
REMARK   46  A    between atoms: _98  and  _100
REMARK   47  A    between atoms: _100  and  _101
REMARK   48  A    between atoms: _100  and  _103
REMARK   49  A    between atoms: _103  and  _104
REMARK   50  A    between atoms: _109  and  _111
REMARK   51  A    between atoms: _111  and  _112
REMARK   52  A    between atoms: _111  and  _114
REMARK   53  A    between atoms: _114  and  _115
REMARK   54  A    between atoms: _115  and  _116
REMARK   55  A    between atoms: _119  and  _121
REMARK   56  A    between atoms: _121  and  _122
REMARK   57  A    between atoms: _121  and  _124
REMARK   58  A    between atoms: _124  and  _125
REMARK   59  A    between atoms: _127  and  _129
REMARK   60  A    between atoms: _129  and  _130
REMARK   61  A    between atoms: _129  and  _132
REMARK   62  A    between atoms: _132  and  _133
REMARK   63  A    between atoms: _143  and  _145
REMARK   64  A    between atoms: _145  and  _146
REMARK   65  A    between atoms: _145  and  _148
REMARK   66  A    between atoms: _148  and  _149
REMARK   67  A    between atoms: _154  and  _156
REMARK   68  A    between atoms: _156  and  _157
REMARK   69  A    between atoms: _159  and  _161
REMARK   70  A    between atoms: _161  and  _162
REMARK   71  A    between atoms: _161  and  _164
REMARK   72  A    between atoms: _164  and  _165
REMARK   73  A    between atoms: _165  and  _166
REMARK   74  A    between atoms: _168  and  _170
REMARK   75  A    between atoms: _170  and  _171
REMARK   76  A    between atoms: _170  and  _173
REMARK   77  A    between atoms: _173  and  _174
REMARK   78  A    between atoms: _177  and  _179
REMARK   79  A    between atoms: _179  and  _180
REMARK   80  A    between atoms: _183  and  _185
REMARK   81  A    between atoms: _185  and  _186
REMARK   82  A    between atoms: _185  and  _188
REMARK   83  A    between atoms: _188  and  _189
REMARK   84  A    between atoms: _192  and  _194
REMARK   85  A    between atoms: _194  and  _195
REMARK   86  A    between atoms: _194  and  _197
REMARK   87  A    between atoms: _197  and  _198
REMARK   88  A    between atoms: _200  and  _202
REMARK   89  A    between atoms: _202  and  _203
REMARK   90  A    between atoms: _202  and  _205
REMARK   91  A    between atoms: _205  and  _206
REMARK   92  A    between atoms: _209  and  _211
REMARK   93  A    between atoms: _211  and  _212
REMARK   94  A    between atoms: _215  and  _217
REMARK   95  A    between atoms: _217  and  _218
REMARK   96  A    between atoms: _217  and  _220
REMARK   97  A    between atoms: _220  and  _221
REMARK   98  A    between atoms: _221  and  _222
REMARK   99  A    between atoms: _226  and  _227
REMARK  100  A    between atoms: _232  and  _234
REMARK  101  A    between atoms: _234  and  _235
REMARK  102  A    between atoms: _234  and  _237
REMARK  103  A    between atoms: _237  and  _238
REMARK  104  A    between atoms: _241  and  _243
REMARK  105  A    between atoms: _243  and  _244
REMARK  106  A    between atoms: _243  and  _246
REMARK  107  A    between atoms: _246  and  _247
REMARK  108  A    between atoms: _250  and  _252
REMARK  109  A    between atoms: _252  and  _253
REMARK  110  A    between atoms: _252  and  _255
REMARK  111  A    between atoms: _255  and  _256
REMARK  112  A    between atoms: _258  and  _260
REMARK  113  A    between atoms: _260  and  _261
REMARK  114  A    between atoms: _260  and  _263
REMARK  115  A    between atoms: _263  and  _264
REMARK  116  A    between atoms: _266  and  _268
REMARK  117  A    between atoms: _268  and  _269
REMARK  118  A    between atoms: _271  and  _273
REMARK  119  A    between atoms: _273  and  _274
REMARK  120  A    between atoms: _276  and  _278
REMARK  121  A    between atoms: _278  and  _279
REMARK  122  A    between atoms: _278  and  _281
REMARK  123  A    between atoms: _281  and  _282
REMARK  124  A    between atoms: _285  and  _287
REMARK  125  A    between atoms: _287  and  _288
REMARK  126  A    between atoms: _287  and  _290
REMARK  127  A    between atoms: _290  and  _291
REMARK  128  A    between atoms: _291  and  _292
REMARK  129  A    between atoms: _295  and  _297
REMARK  130  A    between atoms: _297  and  _298
REMARK  131  A    between atoms: _301  and  _303
REMARK  132  A    between atoms: _303  and  _304
REMARK  133  A    between atoms: _303  and  _306
REMARK  134  A    between atoms: _306  and  _307
REMARK  135  A    between atoms: _307  and  _308
REMARK  136  A    between atoms: _313  and  _315
REMARK  137  A    between atoms: _315  and  _316
REMARK  138  A    between atoms: _315  and  _318
REMARK  139  A    between atoms: _318  and  _319
REMARK  140  A    between atoms: _322  and  _324
REMARK  141  A    between atoms: _324  and  _325
REMARK  142  A    between atoms: _327  and  _329
REMARK  143  A    between atoms: _329  and  _330
REMARK  144  A    between atoms: _329  and  _332
REMARK  145  A    between atoms: _332  and  _333
REMARK  146  A    between atoms: _336  and  _338
REMARK  147  A    between atoms: _338  and  _339
REMARK  148  A    between atoms: _338  and  _341
REMARK  149  A    between atoms: _341  and  _342
REMARK  150  A    between atoms: _345  and  _347
REMARK  151  A    between atoms: _347  and  _348
REMARK  152  A    between atoms: _347  and  _350
REMARK  153  A    between atoms: _350  and  _351
REMARK  154  A    between atoms: _353  and  _355
REMARK  155  A    between atoms: _355  and  _356
REMARK  156  A    between atoms: _355  and  _358
REMARK  157  A    between atoms: _358  and  _359
REMARK  158  A    between atoms: _359  and  _360
REMARK  159  A    between atoms: _360  and  _361
REMARK  160  A    between atoms: _361  and  _362
REMARK  161  A    between atoms: _367  and  _368
REMARK  162  A    between atoms: _373  and  _375
REMARK  163  A    between atoms: _375  and  _376
REMARK  164  A    between atoms: _375  and  _378
REMARK  165  A    between atoms: _378  and  _379
REMARK  166  A    between atoms: _382  and  _384
REMARK  167  A    between atoms: _384  and  _385
REMARK  168  A    between atoms: _388  and  _390
REMARK  169  A    between atoms: _390  and  _391
REMARK  170  A    between atoms: _390  and  _393
REMARK  171  A    between atoms: _393  and  _394
REMARK  172  A    between atoms: _399  and  _401
REMARK  173  A    between atoms: _401  and  _402
REMARK  174  A    between atoms: _401  and  _404
REMARK  175  A    between atoms: _407  and  _409
REMARK  176  A    between atoms: _409  and  _410
REMARK  177  A    between atoms: _409  and  _412
REMARK  178  A    between atoms: _412  and  _413
REMARK  179  A    between atoms: _413  and  _414
REMARK  180  A    between atoms: _414  and  _415
REMARK  181  A    between atoms: _424  and  _426
REMARK  182  A    between atoms: _426  and  _427
REMARK  183  A    between atoms: _426  and  _429
REMARK  184  A    between atoms: _429  and  _430
REMARK  185  A    between atoms: _435  and  _437
REMARK  186  A    between atoms: _437  and  _438
REMARK  187  A    between atoms: _437  and  _440
REMARK  188  A    between atoms: _440  and  _441
REMARK  189  A    between atoms: _447  and  _449
REMARK  190  A    between atoms: _449  and  _450
REMARK  191  A    between atoms: _449  and  _452
REMARK  192  A    between atoms: _452  and  _453
REMARK  193  A    between atoms: _455  and  _457
REMARK  194  A    between atoms: _457  and  _458
REMARK  195  A    between atoms: _457  and  _460
REMARK  196  A    between atoms: _460  and  _461
REMARK  197  A    between atoms: _461  and  _462
REMARK  198  A    between atoms: _465  and  _467
REMARK  199  A    between atoms: _467  and  _468
REMARK  200  A    between atoms: _467  and  _470
REMARK  201  A    between atoms: _470  and  _471
REMARK  202  A    between atoms: _473  and  _475
REMARK  203  A    between atoms: _475  and  _476
REMARK  204  A    between atoms: _475  and  _478
REMARK  205  A    between atoms: _478  and  _479
REMARK  206  A    between atoms: _479  and  _480
REMARK  207  A    between atoms: _483  and  _485
REMARK  208  A    between atoms: _485  and  _486
REMARK  209  A    between atoms: _485  and  _488
REMARK  210  A    between atoms: _488  and  _489
REMARK  211  A    between atoms: _492  and  _494
REMARK  212  A    between atoms: _494  and  _495
REMARK  213  A    between atoms: _494  and  _497
REMARK  214  A    between atoms: _497  and  _498
REMARK  215  A    between atoms: _504  and  _506
REMARK  216  A    between atoms: _506  and  _507
REMARK  217  A    between atoms: _506  and  _509
REMARK  218  A    between atoms: _509  and  _510
REMARK  219  A    between atoms: _515  and  _516
REMARK  220  A    between atoms: _518  and  _520
REMARK  221  A    between atoms: _520  and  _521
REMARK  222  A    between atoms: _520  and  _523
REMARK  223  A    between atoms: _523  and  _524
REMARK  224  A    between atoms: _527  and  _529
REMARK  225  A    between atoms: _529  and  _530
REMARK  226  A    between atoms: _529  and  _532
REMARK  227  A    between atoms: _532  and  _533
REMARK  228  A    between atoms: _536  and  _538
REMARK  229  A    between atoms: _538  and  _539
REMARK  230  A    between atoms: _538  and  _541
REMARK  231  A    between atoms: _541  and  _542
REMARK  232  A    between atoms: _547  and  _549
REMARK  233  A    between atoms: _549  and  _550
REMARK  234  A    between atoms: _549  and  _552
REMARK                            x       y       z     vdW  Elec       q    Type
REMARK                         _______ _______ _______ _____ _____    ______ ____
ROOT
ATOM      1  O   HOH     1      12.660  53.866  27.082  0.00  0.00    +0.000 OA
ENDROOT
TORSDOF 0
REMARK  Name = ../refined-set-2016/1m0n/1m0n_pocket.pdb
REMARK  234 active torsions:
REMARK  status: ('A' for Active; 'I' for Inactive)
REMARK    1  A    between atoms: _1  and  _3
REMARK    2  A    between atoms: _3  and  _4
REMARK    3  A    between atoms: _3  and  _6
REMARK    4  A    between atoms: _6  and  _7
REMARK    5  A    between atoms: _10  and  _12
REMARK    6  A    between atoms: _12  and  _13
REMARK    7  A    between atoms: _12  and  _15
REMARK    8  A    between atoms: _15  and  _16
REMARK    9  A    between atoms: _18  and  _20
REMARK   10  A    between atoms: _20  and  _21
REMARK   11  A    between atoms: _23  and  _25
REMARK   12  A    between atoms: _25  and  _26
REMARK   13  A    between atoms: _25  and  _28
REMARK   14  A    between atoms: _28  and  _29
REMARK   15  A    between atoms: _29  and  _30
REMARK   16  A    between atoms: _35  and  _37
REMARK   17  A    between atoms: _37  and  _38
REMARK   18  A    between atoms: _37  and  _40
REMARK   19  A    between atoms: _40  and  _41
REMARK   20  A    between atoms: _41  and  _42
REMARK   21  A    between atoms: _44  and  _46
REMARK   22  A    between atoms: _46  and  _47
REMARK   23  A    between atoms: _46  and  _49
REMARK   24  A    between atoms: _49  and  _50
REMARK   25  A    between atoms: _52  and  _54
REMARK   26  A    between atoms: _54  and  _55
REMARK   27  A    between atoms: _54  and  _57
REMARK   28  A    between atoms: _57  and  _58
REMARK   29  A    between atoms: _60  and  _62
REMARK   30  A    between atoms: _62  and  _63
REMARK   31  A    between atoms: _62  and  _65
REMARK   32  A    between atoms: _65  and  _66
REMARK   33  A    between atoms: _69  and  _71
REMARK   34  A    between atoms: _71  and  _72
REMARK   35  A    between atoms: _74  and  _76
REMARK   36  A    between atoms: _76  and  _77
REMARK   37  A    between atoms: _80  and  _82
REMARK   38  A    between atoms: _82  and  _83
REMARK   39  A    between atoms: _82  and  _85
REMARK   40  A    between atoms: _85  and  _86
REMARK   41  A    between atoms: _86  and  _87
REMARK   42  A    between atoms: _90  and  _92
REMARK   43  A    between atoms: _92  and  _93
REMARK   44  A    between atoms: _92  and  _95
REMARK   45  A    between atoms: _95  and  _96
REMARK   46  A    between atoms: _98  and  _100
REMARK   47  A    between atoms: _100  and  _101
REMARK   48  A    between atoms: _100  and  _103
REMARK   49  A    between atoms: _103  and  _104
REMARK   50  A    between atoms: _109  and  _111
REMARK   51  A    between atoms: _111  and  _112
REMARK   52  A    between atoms: _111  and  _114
REMARK   53  A    between atoms: _114  and  _115
REMARK   54  A    between atoms: _115  and  _116
REMARK   55  A    between atoms: _119  and  _121
REMARK   56  A    between atoms: _121  and  _122
REMARK   57  A    between atoms: _121  and  _124
REMARK   58  A    between atoms: _124  and  _125
REMARK   59  A    between atoms: _127  and  _129
REMARK   60  A    between atoms: _129  and  _130
REMARK   61  A    between atoms: _129  and  _132
REMARK   62  A    between atoms: _132  and  _133
REMARK   63  A    between atoms: _143  and  _145
REMARK   64  A    between atoms: _145  and  _146
REMARK   65  A    between atoms: _145  and  _148
REMARK   66  A    between atoms: _148  and  _149
REMARK   67  A    between atoms: _154  and  _156
REMARK   68  A    between atoms: _156  and  _157
REMARK   69  A    between atoms: _159  and  _161
REMARK   70  A    between atoms: _161  and  _162
REMARK   71  A    between atoms: _161  and  _164
REMARK   72  A    between atoms: _164  and  _165
REMARK   73  A    between atoms: _165  and  _166
REMARK   74  A    between atoms: _168  and  _170
REMARK   75  A    between atoms: _170  and  _171
REMARK   76  A    between atoms: _170  and  _173
REMARK   77  A    between atoms: _173  and  _174
REMARK   78  A    between atoms: _177  and  _179
REMARK   79  A    between atoms: _179  and  _180
REMARK   80  A    between atoms: _183  and  _185
REMARK   81  A    between atoms: _185  and  _186
REMARK   82  A    between atoms: _185  and  _188
REMARK   83  A    between atoms: _188  and  _189
REMARK   84  A    between atoms: _192  and  _194
REMARK   85  A    between atoms: _194  and  _195
REMARK   86  A    between atoms: _194  and  _197
REMARK   87  A    between atoms: _197  and  _198
REMARK   88  A    between atoms: _200  and  _202
REMARK   89  A    between atoms: _202  and  _203
REMARK   90  A    between atoms: _202  and  _205
REMARK   91  A    between atoms: _205  and  _206
REMARK   92  A    between atoms: _209  and  _211
REMARK   93  A    between atoms: _211  and  _212
REMARK   94  A    between atoms: _215  and  _217
REMARK   95  A    between atoms: _217  and  _218
REMARK   96  A    between atoms: _217  and  _220
REMARK   97  A    between atoms: _220  and  _221
REMARK   98  A    between atoms: _221  and  _222
REMARK   99  A    between atoms: _226  and  _227
REMARK  100  A    between atoms: _232  and  _234
REMARK  101  A    between atoms: _234  and  _235
REMARK  102  A    between atoms: _234  and  _237
REMARK  103  A    between atoms: _237  and  _238
REMARK  104  A    between atoms: _241  and  _243
REMARK  105  A    between atoms: _243  and  _244
REMARK  106  A    between atoms: _243  and  _246
REMARK  107  A    between atoms: _246  and  _247
REMARK  108  A    between atoms: _250  and  _252
REMARK  109  A    between atoms: _252  and  _253
REMARK  110  A    between atoms: _252  and  _255
REMARK  111  A    between atoms: _255  and  _256
REMARK  112  A    between atoms: _258  and  _260
REMARK  113  A    between atoms: _260  and  _261
REMARK  114  A    between atoms: _260  and  _263
REMARK  115  A    between atoms: _263  and  _264
REMARK  116  A    between atoms: _266  and  _268
REMARK  117  A    between atoms: _268  and  _269
REMARK  118  A    between atoms: _271  and  _273
REMARK  119  A    between atoms: _273  and  _274
REMARK  120  A    between atoms: _276  and  _278
REMARK  121  A    between atoms: _278  and  _279
REMARK  122  A    between atoms: _278  and  _281
REMARK  123  A    between atoms: _281  and  _282
REMARK  124  A    between atoms: _285  and  _287
REMARK  125  A    between atoms: _287  and  _288
REMARK  126  A    between atoms: _287  and  _290
REMARK  127  A    between atoms: _290  and  _291
REMARK  128  A    between atoms: _291  and  _292
REMARK  129  A    between atoms: _295  and  _297
REMARK  130  A    between atoms: _297  and  _298
REMARK  131  A    between atoms: _301  and  _303
REMARK  132  A    between atoms: _303  and  _304
REMARK  133  A    between atoms: _303  and  _306
REMARK  134  A    between atoms: _306  and  _307
REMARK  135  A    between atoms: _307  and  _308
REMARK  136  A    between atoms: _313  and  _315
REMARK  137  A    between atoms: _315  and  _316
REMARK  138  A    between atoms: _315  and  _318
REMARK  139  A    between atoms: _318  and  _319
REMARK  140  A    between atoms: _322  and  _324
REMARK  141  A    between atoms: _324  and  _325
REMARK  142  A    between atoms: _327  and  _329
REMARK  143  A    between atoms: _329  and  _330
REMARK  144  A    between atoms: _329  and  _332
REMARK  145  A    between atoms: _332  and  _333
REMARK  146  A    between atoms: _336  and  _338
REMARK  147  A    between atoms: _338  and  _339
REMARK  148  A    between atoms: _338  and  _341
REMARK  149  A    between atoms: _341  and  _342
REMARK  150  A    between atoms: _345  and  _347
REMARK  151  A    between atoms: _347  and  _348
REMARK  152  A    between atoms: _347  and  _350
REMARK  153  A    between atoms: _350  and  _351
REMARK  154  A    between atoms: _353  and  _355
REMARK  155  A    between atoms: _355  and  _356
REMARK  156  A    between atoms: _355  and  _358
REMARK  157  A    between atoms: _358  and  _359
REMARK  158  A    between atoms: _359  and  _360
REMARK  159  A    between atoms: _360  and  _361
REMARK  160  A    between atoms: _361  and  _362
REMARK  161  A    between atoms: _367  and  _368
REMARK  162  A    between atoms: _373  and  _375
REMARK  163  A    between atoms: _375  and  _376
REMARK  164  A    between atoms: _375  and  _378
REMARK  165  A    between atoms: _378  and  _379
REMARK  166  A    between atoms: _382  and  _384
REMARK  167  A    between atoms: _384  and  _385
REMARK  168  A    between atoms: _388  and  _390
REMARK  169  A    between atoms: _390  and  _391
REMARK  170  A    between atoms: _390  and  _393
REMARK  171  A    between atoms: _393  and  _394
REMARK  172  A    between atoms: _399  and  _401
REMARK  173  A    between atoms: _401  and  _402
REMARK  174  A    between atoms: _401  and  _404
REMARK  175  A    between atoms: _407  and  _409
REMARK  176  A    between atoms: _409  and  _410
REMARK  177  A    between atoms: _409  and  _412
REMARK  178  A    between atoms: _412  and  _413
REMARK  179  A    between atoms: _413  and  _414
REMARK  180  A    between atoms: _414  and  _415
REMARK  181  A    between atoms: _424  and  _426
REMARK  182  A    between atoms: _426  and  _427
REMARK  183  A    between atoms: _426  and  _429
REMARK  184  A    between atoms: _429  and  _430
REMARK  185  A    between atoms: _435  and  _437
REMARK  186  A    between atoms: _437  and  _438
REMARK  187  A    between atoms: _437  and  _440
REMARK  188  A    between atoms: _440  and  _441
REMARK  189  A    between atoms: _447  and  _449
REMARK  190  A    between atoms: _449  and  _450
REMARK  191  A    between atoms: _449  and  _452
REMARK  192  A    between atoms: _452  and  _453
REMARK  193  A    between atoms: _455  and  _457
REMARK  194  A    between atoms: _457  and  _458
REMARK  195  A    between atoms: _457  and  _460
REMARK  196  A    between atoms: _460  and  _461
REMARK  197  A    between atoms: _461  and  _462
REMARK  198  A    between atoms: _465  and  _467
REMARK  199  A    between atoms: _467  and  _468
REMARK  200  A    between atoms: _467  and  _470
REMARK  201  A    between atoms: _470  and  _471
REMARK  202  A    between atoms: _473  and  _475
REMARK  203  A    between atoms: _475  and  _476
REMARK  204  A    between atoms: _475  and  _478
REMARK  205  A    between atoms: _478  and  _479
REMARK  206  A    between atoms: _479  and  _480
REMARK  207  A    between atoms: _483  and  _485
REMARK  208  A    between atoms: _485  and  _486
REMARK  209  A    between atoms: _485  and  _488
REMARK  210  A    between atoms: _488  and  _489
REMARK  211  A    between atoms: _492  and  _494
REMARK  212  A    between atoms: _494  and  _495
REMARK  213  A    between atoms: _494  and  _497
REMARK  214  A    between atoms: _497  and  _498
REMARK  215  A    between atoms: _504  and  _506
REMARK  216  A    between atoms: _506  and  _507
REMARK  217  A    between atoms: _506  and  _509
REMARK  218  A    between atoms: _509  and  _510
REMARK  219  A    between atoms: _515  and  _516
REMARK  220  A    between atoms: _518  and  _520
REMARK  221  A    between atoms: _520  and  _521
REMARK  222  A    between atoms: _520  and  _523
REMARK  223  A    between atoms: _523  and  _524
REMARK  224  A    between atoms: _527  and  _529
REMARK  225  A    between atoms: _529  and  _530
REMARK  226  A    between atoms: _529  and  _532
REMARK  227  A    between atoms: _532  and  _533
REMARK  228  A    between atoms: _536  and  _538
REMARK  229  A    between atoms: _538  and  _539
REMARK  230  A    between atoms: _538  and  _541
REMARK  231  A    between atoms: _541  and  _542
REMARK  232  A    between atoms: _547  and  _549
REMARK  233  A    between atoms: _549  and  _550
REMARK  234  A    between atoms: _549  and  _552
REMARK                            x       y       z     vdW  Elec       q    Type
REMARK                         _______ _______ _______ _____ _____    ______ ____
ROOT
ATOM      1  O   HOH     1       8.010  50.091  15.357  0.00  0.00    +0.000 OA
ENDROOT
TORSDOF 0
REMARK  Name = ../refined-set-2016/1m0n/1m0n_pocket.pdb
REMARK  234 active torsions:
REMARK  status: ('A' for Active; 'I' for Inactive)
REMARK    1  A    between atoms: _1  and  _3
REMARK    2  A    between atoms: _3  and  _4
REMARK    3  A    between atoms: _3  and  _6
REMARK    4  A    between atoms: _6  and  _7
REMARK    5  A    between atoms: _10  and  _12
REMARK    6  A    between atoms: _12  and  _13
REMARK    7  A    between atoms: _12  and  _15
REMARK    8  A    between atoms: _15  and  _16
REMARK    9  A    between atoms: _18  and  _20
REMARK   10  A    between atoms: _20  and  _21
REMARK   11  A    between atoms: _23  and  _25
REMARK   12  A    between atoms: _25  and  _26
REMARK   13  A    between atoms: _25  and  _28
REMARK   14  A    between atoms: _28  and  _29
REMARK   15  A    between atoms: _29  and  _30
REMARK   16  A    between atoms: _35  and  _37
REMARK   17  A    between atoms: _37  and  _38
REMARK   18  A    between atoms: _37  and  _40
REMARK   19  A    between atoms: _40  and  _41
REMARK   20  A    between atoms: _41  and  _42
REMARK   21  A    between atoms: _44  and  _46
REMARK   22  A    between atoms: _46  and  _47
REMARK   23  A    between atoms: _46  and  _49
REMARK   24  A    between atoms: _49  and  _50
REMARK   25  A    between atoms: _52  and  _54
REMARK   26  A    between atoms: _54  and  _55
REMARK   27  A    between atoms: _54  and  _57
REMARK   28  A    between atoms: _57  and  _58
REMARK   29  A    between atoms: _60  and  _62
REMARK   30  A    between atoms: _62  and  _63
REMARK   31  A    between atoms: _62  and  _65
REMARK   32  A    between atoms: _65  and  _66
REMARK   33  A    between atoms: _69  and  _71
REMARK   34  A    between atoms: _71  and  _72
REMARK   35  A    between atoms: _74  and  _76
REMARK   36  A    between atoms: _76  and  _77
REMARK   37  A    between atoms: _80  and  _82
REMARK   38  A    between atoms: _82  and  _83
REMARK   39  A    between atoms: _82  and  _85
REMARK   40  A    between atoms: _85  and  _86
REMARK   41  A    between atoms: _86  and  _87
REMARK   42  A    between atoms: _90  and  _92
REMARK   43  A    between atoms: _92  and  _93
REMARK   44  A    between atoms: _92  and  _95
REMARK   45  A    between atoms: _95  and  _96
REMARK   46  A    between atoms: _98  and  _100
REMARK   47  A    between atoms: _100  and  _101
REMARK   48  A    between atoms: _100  and  _103
REMARK   49  A    between atoms: _103  and  _104
REMARK   50  A    between atoms: _109  and  _111
REMARK   51  A    between atoms: _111  and  _112
REMARK   52  A    between atoms: _111  and  _114
REMARK   53  A    between atoms: _114  and  _115
REMARK   54  A    between atoms: _115  and  _116
REMARK   55  A    between atoms: _119  and  _121
REMARK   56  A    between atoms: _121  and  _122
REMARK   57  A    between atoms: _121  and  _124
REMARK   58  A    between atoms: _124  and  _125
REMARK   59  A    between atoms: _127  and  _129
REMARK   60  A    between atoms: _129  and  _130
REMARK   61  A    between atoms: _129  and  _132
REMARK   62  A    between atoms: _132  and  _133
REMARK   63  A    between atoms: _143  and  _145
REMARK   64  A    between atoms: _145  and  _146
REMARK   65  A    between atoms: _145  and  _148
REMARK   66  A    between atoms: _148  and  _149
REMARK   67  A    between atoms: _154  and  _156
REMARK   68  A    between atoms: _156  and  _157
REMARK   69  A    between atoms: _159  and  _161
REMARK   70  A    between atoms: _161  and  _162
REMARK   71  A    between atoms: _161  and  _164
REMARK   72  A    between atoms: _164  and  _165
REMARK   73  A    between atoms: _165  and  _166
REMARK   74  A    between atoms: _168  and  _170
REMARK   75  A    between atoms: _170  and  _171
REMARK   76  A    between atoms: _170  and  _173
REMARK   77  A    between atoms: _173  and  _174
REMARK   78  A    between atoms: _177  and  _179
REMARK   79  A    between atoms: _179  and  _180
REMARK   80  A    between atoms: _183  and  _185
REMARK   81  A    between atoms: _185  and  _186
REMARK   82  A    between atoms: _185  and  _188
REMARK   83  A    between atoms: _188  and  _189
REMARK   84  A    between atoms: _192  and  _194
REMARK   85  A    between atoms: _194  and  _195
REMARK   86  A    between atoms: _194  and  _197
REMARK   87  A    between atoms: _197  and  _198
REMARK   88  A    between atoms: _200  and  _202
REMARK   89  A    between atoms: _202  and  _203
REMARK   90  A    between atoms: _202  and  _205
REMARK   91  A    between atoms: _205  and  _206
REMARK   92  A    between atoms: _209  and  _211
REMARK   93  A    between atoms: _211  and  _212
REMARK   94  A    between atoms: _215  and  _217
REMARK   95  A    between atoms: _217  and  _218
REMARK   96  A    between atoms: _217  and  _220
REMARK   97  A    between atoms: _220  and  _221
REMARK   98  A    between atoms: _221  and  _222
REMARK   99  A    between atoms: _226  and  _227
REMARK  100  A    between atoms: _232  and  _234
REMARK  101  A    between atoms: _234  and  _235
REMARK  102  A    between atoms: _234  and  _237
REMARK  103  A    between atoms: _237  and  _238
REMARK  104  A    between atoms: _241  and  _243
REMARK  105  A    between atoms: _243  and  _244
REMARK  106  A    between atoms: _243  and  _246
REMARK  107  A    between atoms: _246  and  _247
REMARK  108  A    between atoms: _250  and  _252
REMARK  109  A    between atoms: _252  and  _253
REMARK  110  A    between atoms: _252  and  _255
REMARK  111  A    between atoms: _255  and  _256
REMARK  112  A    between atoms: _258  and  _260
REMARK  113  A    between atoms: _260  and  _261
REMARK  114  A    between atoms: _260  and  _263
REMARK  115  A    between atoms: _263  and  _264
REMARK  116  A    between atoms: _266  and  _268
REMARK  117  A    between atoms: _268  and  _269
REMARK  118  A    between atoms: _271  and  _273
REMARK  119  A    between atoms: _273  and  _274
REMARK  120  A    between atoms: _276  and  _278
REMARK  121  A    between atoms: _278  and  _279
REMARK  122  A    between atoms: _278  and  _281
REMARK  123  A    between atoms: _281  and  _282
REMARK  124  A    between atoms: _285  and  _287
REMARK  125  A    between atoms: _287  and  _288
REMARK  126  A    between atoms: _287  and  _290
REMARK  127  A    between atoms: _290  and  _291
REMARK  128  A    between atoms: _291  and  _292
REMARK  129  A    between atoms: _295  and  _297
REMARK  130  A    between atoms: _297  and  _298
REMARK  131  A    between atoms: _301  and  _303
REMARK  132  A    between atoms: _303  and  _304
REMARK  133  A    between atoms: _303  and  _306
REMARK  134  A    between atoms: _306  and  _307
REMARK  135  A    between atoms: _307  and  _308
REMARK  136  A    between atoms: _313  and  _315
REMARK  137  A    between atoms: _315  and  _316
REMARK  138  A    between atoms: _315  and  _318
REMARK  139  A    between atoms: _318  and  _319
REMARK  140  A    between atoms: _322  and  _324
REMARK  141  A    between atoms: _324  and  _325
REMARK  142  A    between atoms: _327  and  _329
REMARK  143  A    between atoms: _329  and  _330
REMARK  144  A    between atoms: _329  and  _332
REMARK  145  A    between atoms: _332  and  _333
REMARK  146  A    between atoms: _336  and  _338
REMARK  147  A    between atoms: _338  and  _339
REMARK  148  A    between atoms: _338  and  _341
REMARK  149  A    between atoms: _341  and  _342
REMARK  150  A    between atoms: _345  and  _347
REMARK  151  A    between atoms: _347  and  _348
REMARK  152  A    between atoms: _347  and  _350
REMARK  153  A    between atoms: _350  and  _351
REMARK  154  A    between atoms: _353  and  _355
REMARK  155  A    between atoms: _355  and  _356
REMARK  156  A    between atoms: _355  and  _358
REMARK  157  A    between atoms: _358  and  _359
REMARK  158  A    between atoms: _359  and  _360
REMARK  159  A    between atoms: _360  and  _361
REMARK  160  A    between atoms: _361  and  _362
REMARK  161  A    between atoms: _367  and  _368
REMARK  162  A    between atoms: _373  and  _375
REMARK  163  A    between atoms: _375  and  _376
REMARK  164  A    between atoms: _375  and  _378
REMARK  165  A    between atoms: _378  and  _379
REMARK  166  A    between atoms: _382  and  _384
REMARK  167  A    between atoms: _384  and  _385
REMARK  168  A    between atoms: _388  and  _390
REMARK  169  A    between atoms: _390  and  _391
REMARK  170  A    between atoms: _390  and  _393
REMARK  171  A    between atoms: _393  and  _394
REMARK  172  A    between atoms: _399  and  _401
REMARK  173  A    between atoms: _401  and  _402
REMARK  174  A    between atoms: _401  and  _404
REMARK  175  A    between atoms: _407  and  _409
REMARK  176  A    between atoms: _409  and  _410
REMARK  177  A    between atoms: _409  and  _412
REMARK  178  A    between atoms: _412  and  _413
REMARK  179  A    between atoms: _413  and  _414
REMARK  180  A    between atoms: _414  and  _415
REMARK  181  A    between atoms: _424  and  _426
REMARK  182  A    between atoms: _426  and  _427
REMARK  183  A    between atoms: _426  and  _429
REMARK  184  A    between atoms: _429  and  _430
REMARK  185  A    between atoms: _435  and  _437
REMARK  186  A    between atoms: _437  and  _438
REMARK  187  A    between atoms: _437  and  _440
REMARK  188  A    between atoms: _440  and  _441
REMARK  189  A    between atoms: _447  and  _449
REMARK  190  A    between atoms: _449  and  _450
REMARK  191  A    between atoms: _449  and  _452
REMARK  192  A    between atoms: _452  and  _453
REMARK  193  A    between atoms: _455  and  _457
REMARK  194  A    between atoms: _457  and  _458
REMARK  195  A    between atoms: _457  and  _460
REMARK  196  A    between atoms: _460  and  _461
REMARK  197  A    between atoms: _461  and  _462
REMARK  198  A    between atoms: _465  and  _467
REMARK  199  A    between atoms: _467  and  _468
REMARK  200  A    between atoms: _467  and  _470
REMARK  201  A    between atoms: _470  and  _471
REMARK  202  A    between atoms: _473  and  _475
REMARK  203  A    between atoms: _475  and  _476
REMARK  204  A    between atoms: _475  and  _478
REMARK  205  A    between atoms: _478  and  _479
REMARK  206  A    between atoms: _479  and  _480
REMARK  207  A    between atoms: _483  and  _485
REMARK  208  A    between atoms: _485  and  _486
REMARK  209  A    between atoms: _485  and  _488
REMARK  210  A    between atoms: _488  and  _489
REMARK  211  A    between atoms: _492  and  _494
REMARK  212  A    between atoms: _494  and  _495
REMARK  213  A    between atoms: _494  and  _497
REMARK  214  A    between atoms: _497  and  _498
REMARK  215  A    between atoms: _504  and  _506
REMARK  216  A    between atoms: _506  and  _507
REMARK  217  A    between atoms: _506  and  _509
REMARK  218  A    between atoms: _509  and  _510
REMARK  219  A    between atoms: _515  and  _516
REMARK  220  A    between atoms: _518  and  _520
REMARK  221  A    between atoms: _520  and  _521
REMARK  222  A    between atoms: _520  and  _523
REMARK  223  A    between atoms: _523  and  _524
REMARK  224  A    between atoms: _527  and  _529
REMARK  225  A    between atoms: _529  and  _530
REMARK  226  A    between atoms: _529  and  _532
REMARK  227  A    between atoms: _532  and  _533
REMARK  228  A    between atoms: _536  and  _538
REMARK  229  A    between atoms: _538  and  _539
REMARK  230  A    between atoms: _538  and  _541
REMARK  231  A    between atoms: _541  and  _542
REMARK  232  A    between atoms: _547  and  _549
REMARK  233  A    between atoms: _549  and  _550
REMARK  234  A    between atoms: _549  and  _552
REMARK                            x       y       z     vdW  Elec       q    Type
REMARK                         _______ _______ _______ _____ _____    ______ ____
ROOT
ATOM      1  O   HOH     1      17.323  43.205  13.040  0.00  0.00    +0.000 OA
ENDROOT
TORSDOF 0
REMARK  Name = ../refined-set-2016/1m0n/1m0n_pocket.pdb
REMARK  234 active torsions:
REMARK  status: ('A' for Active; 'I' for Inactive)
REMARK    1  A    between atoms: _1  and  _3
REMARK    2  A    between atoms: _3  and  _4
REMARK    3  A    between atoms: _3  and  _6
REMARK    4  A    between atoms: _6  and  _7
REMARK    5  A    between atoms: _10  and  _12
REMARK    6  A    between atoms: _12  and  _13
REMARK    7  A    between atoms: _12  and  _15
REMARK    8  A    between atoms: _15  and  _16
REMARK    9  A    between atoms: _18  and  _20
REMARK   10  A    between atoms: _20  and  _21
REMARK   11  A    between atoms: _23  and  _25
REMARK   12  A    between atoms: _25  and  _26
REMARK   13  A    between atoms: _25  and  _28
REMARK   14  A    between atoms: _28  and  _29
REMARK   15  A    between atoms: _29  and  _30
REMARK   16  A    between atoms: _35  and  _37
REMARK   17  A    between atoms: _37  and  _38
REMARK   18  A    between atoms: _37  and  _40
REMARK   19  A    between atoms: _40  and  _41
REMARK   20  A    between atoms: _41  and  _42
REMARK   21  A    between atoms: _44  and  _46
REMARK   22  A    between atoms: _46  and  _47
REMARK   23  A    between atoms: _46  and  _49
REMARK   24  A    between atoms: _49  and  _50
REMARK   25  A    between atoms: _52  and  _54
REMARK   26  A    between atoms: _54  and  _55
REMARK   27  A    between atoms: _54  and  _57
REMARK   28  A    between atoms: _57  and  _58
REMARK   29  A    between atoms: _60  and  _62
REMARK   30  A    between atoms: _62  and  _63
REMARK   31  A    between atoms: _62  and  _65
REMARK   32  A    between atoms: _65  and  _66
REMARK   33  A    between atoms: _69  and  _71
REMARK   34  A    between atoms: _71  and  _72
REMARK   35  A    between atoms: _74  and  _76
REMARK   36  A    between atoms: _76  and  _77
REMARK   37  A    between atoms: _80  and  _82
REMARK   38  A    between atoms: _82  and  _83
REMARK   39  A    between atoms: _82  and  _85
REMARK   40  A    between atoms: _85  and  _86
REMARK   41  A    between atoms: _86  and  _87
REMARK   42  A    between atoms: _90  and  _92
REMARK   43  A    between atoms: _92  and  _93
REMARK   44  A    between atoms: _92  and  _95
REMARK   45  A    between atoms: _95  and  _96
REMARK   46  A    between atoms: _98  and  _100
REMARK   47  A    between atoms: _100  and  _101
REMARK   48  A    between atoms: _100  and  _103
REMARK   49  A    between atoms: _103  and  _104
REMARK   50  A    between atoms: _109  and  _111
REMARK   51  A    between atoms: _111  and  _112
REMARK   52  A    between atoms: _111  and  _114
REMARK   53  A    between atoms: _114  and  _115
REMARK   54  A    between atoms: _115  and  _116
REMARK   55  A    between atoms: _119  and  _121
REMARK   56  A    between atoms: _121  and  _122
REMARK   57  A    between atoms: _121  and  _124
REMARK   58  A    between atoms: _124  and  _125
REMARK   59  A    between atoms: _127  and  _129
REMARK   60  A    between atoms: _129  and  _130
REMARK   61  A    between atoms: _129  and  _132
REMARK   62  A    between atoms: _132  and  _133
REMARK   63  A    between atoms: _143  and  _145
REMARK   64  A    between atoms: _145  and  _146
REMARK   65  A    between atoms: _145  and  _148
REMARK   66  A    between atoms: _148  and  _149
REMARK   67  A    between atoms: _154  and  _156
REMARK   68  A    between atoms: _156  and  _157
REMARK   69  A    between atoms: _159  and  _161
REMARK   70  A    between atoms: _161  and  _162
REMARK   71  A    between atoms: _161  and  _164
REMARK   72  A    between atoms: _164  and  _165
REMARK   73  A    between atoms: _165  and  _166
REMARK   74  A    between atoms: _168  and  _170
REMARK   75  A    between atoms: _170  and  _171
REMARK   76  A    between atoms: _170  and  _173
REMARK   77  A    between atoms: _173  and  _174
REMARK   78  A    between atoms: _177  and  _179
REMARK   79  A    between atoms: _179  and  _180
REMARK   80  A    between atoms: _183  and  _185
REMARK   81  A    between atoms: _185  and  _186
REMARK   82  A    between atoms: _185  and  _188
REMARK   83  A    between atoms: _188  and  _189
REMARK   84  A    between atoms: _192  and  _194
REMARK   85  A    between atoms: _194  and  _195
REMARK   86  A    between atoms: _194  and  _197
REMARK   87  A    between atoms: _197  and  _198
REMARK   88  A    between atoms: _200  and  _202
REMARK   89  A    between atoms: _202  and  _203
REMARK   90  A    between atoms: _202  and  _205
REMARK   91  A    between atoms: _205  and  _206
REMARK   92  A    between atoms: _209  and  _211
REMARK   93  A    between atoms: _211  and  _212
REMARK   94  A    between atoms: _215  and  _217
REMARK   95  A    between atoms: _217  and  _218
REMARK   96  A    between atoms: _217  and  _220
REMARK   97  A    between atoms: _220  and  _221
REMARK   98  A    between atoms: _221  and  _222
REMARK   99  A    between atoms: _226  and  _227
REMARK  100  A    between atoms: _232  and  _234
REMARK  101  A    between atoms: _234  and  _235
REMARK  102  A    between atoms: _234  and  _237
REMARK  103  A    between atoms: _237  and  _238
REMARK  104  A    between atoms: _241  and  _243
REMARK  105  A    between atoms: _243  and  _244
REMARK  106  A    between atoms: _243  and  _246
REMARK  107  A    between atoms: _246  and  _247
REMARK  108  A    between atoms: _250  and  _252
REMARK  109  A    between atoms: _252  and  _253
REMARK  110  A    between atoms: _252  and  _255
REMARK  111  A    between atoms: _255  and  _256
REMARK  112  A    between atoms: _258  and  _260
REMARK  113  A    between atoms: _260  and  _261
REMARK  114  A    between atoms: _260  and  _263
REMARK  115  A    between atoms: _263  and  _264
REMARK  116  A    between atoms: _266  and  _268
REMARK  117  A    between atoms: _268  and  _269
REMARK  118  A    between atoms: _271  and  _273
REMARK  119  A    between atoms: _273  and  _274
REMARK  120  A    between atoms: _276  and  _278
REMARK  121  A    between atoms: _278  and  _279
REMARK  122  A    between atoms: _278  and  _281
REMARK  123  A    between atoms: _281  and  _282
REMARK  124  A    between atoms: _285  and  _287
REMARK  125  A    between atoms: _287  and  _288
REMARK  126  A    between atoms: _287  and  _290
REMARK  127  A    between atoms: _290  and  _291
REMARK  128  A    between atoms: _291  and  _292
REMARK  129  A    between atoms: _295  and  _297
REMARK  130  A    between atoms: _297  and  _298
REMARK  131  A    between atoms: _301  and  _303
REMARK  132  A    between atoms: _303  and  _304
REMARK  133  A    between atoms: _303  and  _306
REMARK  134  A    between atoms: _306  and  _307
REMARK  135  A    between atoms: _307  and  _308
REMARK  136  A    between atoms: _313  and  _315
REMARK  137  A    between atoms: _315  and  _316
REMARK  138  A    between atoms: _315  and  _318
REMARK  139  A    between atoms: _318  and  _319
REMARK  140  A    between atoms: _322  and  _324
REMARK  141  A    between atoms: _324  and  _325
REMARK  142  A    between atoms: _327  and  _329
REMARK  143  A    between atoms: _329  and  _330
REMARK  144  A    between atoms: _329  and  _332
REMARK  145  A    between atoms: _332  and  _333
REMARK  146  A    between atoms: _336  and  _338
REMARK  147  A    between atoms: _338  and  _339
REMARK  148  A    between atoms: _338  and  _341
REMARK  149  A    between atoms: _341  and  _342
REMARK  150  A    between atoms: _345  and  _347
REMARK  151  A    between atoms: _347  and  _348
REMARK  152  A    between atoms: _347  and  _350
REMARK  153  A    between atoms: _350  and  _351
REMARK  154  A    between atoms: _353  and  _355
REMARK  155  A    between atoms: _355  and  _356
REMARK  156  A    between atoms: _355  and  _358
REMARK  157  A    between atoms: _358  and  _359
REMARK  158  A    between atoms: _359  and  _360
REMARK  159  A    between atoms: _360  and  _361
REMARK  160  A    between atoms: _361  and  _362
REMARK  161  A    between atoms: _367  and  _368
REMARK  162  A    between atoms: _373  and  _375
REMARK  163  A    between atoms: _375  and  _376
REMARK  164  A    between atoms: _375  and  _378
REMARK  165  A    between atoms: _378  and  _379
REMARK  166  A    between atoms: _382  and  _384
REMARK  167  A    between atoms: _384  and  _385
REMARK  168  A    between atoms: _388  and  _390
REMARK  169  A    between atoms: _390  and  _391
REMARK  170  A    between atoms: _390  and  _393
REMARK  171  A    between atoms: _393  and  _394
REMARK  172  A    between atoms: _399  and  _401
REMARK  173  A    between atoms: _401  and  _402
REMARK  174  A    between atoms: _401  and  _404
REMARK  175  A    between atoms: _407  and  _409
REMARK  176  A    between atoms: _409  and  _410
REMARK  177  A    between atoms: _409  and  _412
REMARK  178  A    between atoms: _412  and  _413
REMARK  179  A    between atoms: _413  and  _414
REMARK  180  A    between atoms: _414  and  _415
REMARK  181  A    between atoms: _424  and  _426
REMARK  182  A    between atoms: _426  and  _427
REMARK  183  A    between atoms: _426  and  _429
REMARK  184  A    between atoms: _429  and  _430
REMARK  185  A    between atoms: _435  and  _437
REMARK  186  A    between atoms: _437  and  _438
REMARK  187  A    between atoms: _437  and  _440
REMARK  188  A    between atoms: _440  and  _441
REMARK  189  A    between atoms: _447  and  _449
REMARK  190  A    between atoms: _449  and  _450
REMARK  191  A    between atoms: _449  and  _452
REMARK  192  A    between atoms: _452  and  _453
REMARK  193  A    between atoms: _455  and  _457
REMARK  194  A    between atoms: _457  and  _458
REMARK  195  A    between atoms: _457  and  _460
REMARK  196  A    between atoms: _460  and  _461
REMARK  197  A    between atoms: _461  and  _462
REMARK  198  A    between atoms: _465  and  _467
REMARK  199  A    between atoms: _467  and  _468
REMARK  200  A    between atoms: _467  and  _470
REMARK  201  A    between atoms: _470  and  _471
REMARK  202  A    between atoms: _473  and  _475
REMARK  203  A    between atoms: _475  and  _476
REMARK  204  A    between atoms: _475  and  _478
REMARK  205  A    between atoms: _478  and  _479
REMARK  206  A    between atoms: _479  and  _480
REMARK  207  A    between atoms: _483  and  _485
REMARK  208  A    between atoms: _485  and  _486
REMARK  209  A    between atoms: _485  and  _488
REMARK  210  A    between atoms: _488  and  _489
REMARK  211  A    between atoms: _492  and  _494
REMARK  212  A    between atoms: _494  and  _495
REMARK  213  A    between atoms: _494  and  _497
REMARK  214  A    between atoms: _497  and  _498
REMARK  215  A    between atoms: _504  and  _506
REMARK  216  A    between atoms: _506  and  _507
REMARK  217  A    between atoms: _506  and  _509
REMARK  218  A    between atoms: _509  and  _510
REMARK  219  A    between atoms: _515  and  _516
REMARK  220  A    between atoms: _518  and  _520
REMARK  221  A    between atoms: _520  and  _521
REMARK  222  A    between atoms: _520  and  _523
REMARK  223  A    between atoms: _523  and  _524
REMARK  224  A    between atoms: _527  and  _529
REMARK  225  A    between atoms: _529  and  _530
REMARK  226  A    between atoms: _529  and  _532
REMARK  227  A    between atoms: _532  and  _533
REMARK  228  A    between atoms: _536  and  _538
REMARK  229  A    between atoms: _538  and  _539
REMARK  230  A    between atoms: _538  and  _541
REMARK  231  A    between atoms: _541  and  _542
REMARK  232  A    between atoms: _547  and  _549
REMARK  233  A    between atoms: _549  and  _550
REMARK  234  A    between atoms: _549  and  _552
REMARK                            x       y       z     vdW  Elec       q    Type
REMARK                         _______ _______ _______ _____ _____    ______ ____
ROOT
ATOM      1  O   HOH     1      18.498  45.904  14.731  0.00  0.00    +0.000 OA
ENDROOT
TORSDOF 0
REMARK  Name = ../refined-set-2016/1m0n/1m0n_pocket.pdb
REMARK  234 active torsions:
REMARK  status: ('A' for Active; 'I' for Inactive)
REMARK    1  A    between atoms: _1  and  _3
REMARK    2  A    between atoms: _3  and  _4
REMARK    3  A    between atoms: _3  and  _6
REMARK    4  A    between atoms: _6  and  _7
REMARK    5  A    between atoms: _10  and  _12
REMARK    6  A    between atoms: _12  and  _13
REMARK    7  A    between atoms: _12  and  _15
REMARK    8  A    between atoms: _15  and  _16
REMARK    9  A    between atoms: _18  and  _20
REMARK   10  A    between atoms: _20  and  _21
REMARK   11  A    between atoms: _23  and  _25
REMARK   12  A    between atoms: _25  and  _26
REMARK   13  A    between atoms: _25  and  _28
REMARK   14  A    between atoms: _28  and  _29
REMARK   15  A    between atoms: _29  and  _30
REMARK   16  A    between atoms: _35  and  _37
REMARK   17  A    between atoms: _37  and  _38
REMARK   18  A    between atoms: _37  and  _40
REMARK   19  A    between atoms: _40  and  _41
REMARK   20  A    between atoms: _41  and  _42
REMARK   21  A    between atoms: _44  and  _46
REMARK   22  A    between atoms: _46  and  _47
REMARK   23  A    between atoms: _46  and  _49
REMARK   24  A    between atoms: _49  and  _50
REMARK   25  A    between atoms: _52  and  _54
REMARK   26  A    between atoms: _54  and  _55
REMARK   27  A    between atoms: _54  and  _57
REMARK   28  A    between atoms: _57  and  _58
REMARK   29  A    between atoms: _60  and  _62
REMARK   30  A    between atoms: _62  and  _63
REMARK   31  A    between atoms: _62  and  _65
REMARK   32  A    between atoms: _65  and  _66
REMARK   33  A    between atoms: _69  and  _71
REMARK   34  A    between atoms: _71  and  _72
REMARK   35  A    between atoms: _74  and  _76
REMARK   36  A    between atoms: _76  and  _77
REMARK   37  A    between atoms: _80  and  _82
REMARK   38  A    between atoms: _82  and  _83
REMARK   39  A    between atoms: _82  and  _85
REMARK   40  A    between atoms: _85  and  _86
REMARK   41  A    between atoms: _86  and  _87
REMARK   42  A    between atoms: _90  and  _92
REMARK   43  A    between atoms: _92  and  _93
REMARK   44  A    between atoms: _92  and  _95
REMARK   45  A    between atoms: _95  and  _96
REMARK   46  A    between atoms: _98  and  _100
REMARK   47  A    between atoms: _100  and  _101
REMARK   48  A    between atoms: _100  and  _103
REMARK   49  A    between atoms: _103  and  _104
REMARK   50  A    between atoms: _109  and  _111
REMARK   51  A    between atoms: _111  and  _112
REMARK   52  A    between atoms: _111  and  _114
REMARK   53  A    between atoms: _114  and  _115
REMARK   54  A    between atoms: _115  and  _116
REMARK   55  A    between atoms: _119  and  _121
REMARK   56  A    between atoms: _121  and  _122
REMARK   57  A    between atoms: _121  and  _124
REMARK   58  A    between atoms: _124  and  _125
REMARK   59  A    between atoms: _127  and  _129
REMARK   60  A    between atoms: _129  and  _130
REMARK   61  A    between atoms: _129  and  _132
REMARK   62  A    between atoms: _132  and  _133
REMARK   63  A    between atoms: _143  and  _145
REMARK   64  A    between atoms: _145  and  _146
REMARK   65  A    between atoms: _145  and  _148
REMARK   66  A    between atoms: _148  and  _149
REMARK   67  A    between atoms: _154  and  _156
REMARK   68  A    between atoms: _156  and  _157
REMARK   69  A    between atoms: _159  and  _161
REMARK   70  A    between atoms: _161  and  _162
REMARK   71  A    between atoms: _161  and  _164
REMARK   72  A    between atoms: _164  and  _165
REMARK   73  A    between atoms: _165  and  _166
REMARK   74  A    between atoms: _168  and  _170
REMARK   75  A    between atoms: _170  and  _171
REMARK   76  A    between atoms: _170  and  _173
REMARK   77  A    between atoms: _173  and  _174
REMARK   78  A    between atoms: _177  and  _179
REMARK   79  A    between atoms: _179  and  _180
REMARK   80  A    between atoms: _183  and  _185
REMARK   81  A    between atoms: _185  and  _186
REMARK   82  A    between atoms: _185  and  _188
REMARK   83  A    between atoms: _188  and  _189
REMARK   84  A    between atoms: _192  and  _194
REMARK   85  A    between atoms: _194  and  _195
REMARK   86  A    between atoms: _194  and  _197
REMARK   87  A    between atoms: _197  and  _198
REMARK   88  A    between atoms: _200  and  _202
REMARK   89  A    between atoms: _202  and  _203
REMARK   90  A    between atoms: _202  and  _205
REMARK   91  A    between atoms: _205  and  _206
REMARK   92  A    between atoms: _209  and  _211
REMARK   93  A    between atoms: _211  and  _212
REMARK   94  A    between atoms: _215  and  _217
REMARK   95  A    between atoms: _217  and  _218
REMARK   96  A    between atoms: _217  and  _220
REMARK   97  A    between atoms: _220  and  _221
REMARK   98  A    between atoms: _221  and  _222
REMARK   99  A    between atoms: _226  and  _227
REMARK  100  A    between atoms: _232  and  _234
REMARK  101  A    between atoms: _234  and  _235
REMARK  102  A    between atoms: _234  and  _237
REMARK  103  A    between atoms: _237  and  _238
REMARK  104  A    between atoms: _241  and  _243
REMARK  105  A    between atoms: _243  and  _244
REMARK  106  A    between atoms: _243  and  _246
REMARK  107  A    between atoms: _246  and  _247
REMARK  108  A    between atoms: _250  and  _252
REMARK  109  A    between atoms: _252  and  _253
REMARK  110  A    between atoms: _252  and  _255
REMARK  111  A    between atoms: _255  and  _256
REMARK  112  A    between atoms: _258  and  _260
REMARK  113  A    between atoms: _260  and  _261
REMARK  114  A    between atoms: _260  and  _263
REMARK  115  A    between atoms: _263  and  _264
REMARK  116  A    between atoms: _266  and  _268
REMARK  117  A    between atoms: _268  and  _269
REMARK  118  A    between atoms: _271  and  _273
REMARK  119  A    between atoms: _273  and  _274
REMARK  120  A    between atoms: _276  and  _278
REMARK  121  A    between atoms: _278  and  _279
REMARK  122  A    between atoms: _278  and  _281
REMARK  123  A    between atoms: _281  and  _282
REMARK  124  A    between atoms: _285  and  _287
REMARK  125  A    between atoms: _287  and  _288
REMARK  126  A    between atoms: _287  and  _290
REMARK  127  A    between atoms: _290  and  _291
REMARK  128  A    between atoms: _291  and  _292
REMARK  129  A    between atoms: _295  and  _297
REMARK  130  A    between atoms: _297  and  _298
REMARK  131  A    between atoms: _301  and  _303
REMARK  132  A    between atoms: _303  and  _304
REMARK  133  A    between atoms: _303  and  _306
REMARK  134  A    between atoms: _306  and  _307
REMARK  135  A    between atoms: _307  and  _308
REMARK  136  A    between atoms: _313  and  _315
REMARK  137  A    between atoms: _315  and  _316
REMARK  138  A    between atoms: _315  and  _318
REMARK  139  A    between atoms: _318  and  _319
REMARK  140  A    between atoms: _322  and  _324
REMARK  141  A    between atoms: _324  and  _325
REMARK  142  A    between atoms: _327  and  _329
REMARK  143  A    between atoms: _329  and  _330
REMARK  144  A    between atoms: _329  and  _332
REMARK  145  A    between atoms: _332  and  _333
REMARK  146  A    between atoms: _336  and  _338
REMARK  147  A    between atoms: _338  and  _339
REMARK  148  A    between atoms: _338  and  _341
REMARK  149  A    between atoms: _341  and  _342
REMARK  150  A    between atoms: _345  and  _347
REMARK  151  A    between atoms: _347  and  _348
REMARK  152  A    between atoms: _347  and  _350
REMARK  153  A    between atoms: _350  and  _351
REMARK  154  A    between atoms: _353  and  _355
REMARK  155  A    between atoms: _355  and  _356
REMARK  156  A    between atoms: _355  and  _358
REMARK  157  A    between atoms: _358  and  _359
REMARK  158  A    between atoms: _359  and  _360
REMARK  159  A    between atoms: _360  and  _361
REMARK  160  A    between atoms: _361  and  _362
REMARK  161  A    between atoms: _367  and  _368
REMARK  162  A    between atoms: _373  and  _375
REMARK  163  A    between atoms: _375  and  _376
REMARK  164  A    between atoms: _375  and  _378
REMARK  165  A    between atoms: _378  and  _379
REMARK  166  A    between atoms: _382  and  _384
REMARK  167  A    between atoms: _384  and  _385
REMARK  168  A    between atoms: _388  and  _390
REMARK  169  A    between atoms: _390  and  _391
REMARK  170  A    between atoms: _390  and  _393
REMARK  171  A    between atoms: _393  and  _394
REMARK  172  A    between atoms: _399  and  _401
REMARK  173  A    between atoms: _401  and  _402
REMARK  174  A    between atoms: _401  and  _404
REMARK  175  A    between atoms: _407  and  _409
REMARK  176  A    between atoms: _409  and  _410
REMARK  177  A    between atoms: _409  and  _412
REMARK  178  A    between atoms: _412  and  _413
REMARK  179  A    between atoms: _413  and  _414
REMARK  180  A    between atoms: _414  and  _415
REMARK  181  A    between atoms: _424  and  _426
REMARK  182  A    between atoms: _426  and  _427
REMARK  183  A    between atoms: _426  and  _429
REMARK  184  A    between atoms: _429  and  _430
REMARK  185  A    between atoms: _435  and  _437
REMARK  186  A    between atoms: _437  and  _438
REMARK  187  A    between atoms: _437  and  _440
REMARK  188  A    between atoms: _440  and  _441
REMARK  189  A    between atoms: _447  and  _449
REMARK  190  A    between atoms: _449  and  _450
REMARK  191  A    between atoms: _449  and  _452
REMARK  192  A    between atoms: _452  and  _453
REMARK  193  A    between atoms: _455  and  _457
REMARK  194  A    between atoms: _457  and  _458
REMARK  195  A    between atoms: _457  and  _460
REMARK  196  A    between atoms: _460  and  _461
REMARK  197  A    between atoms: _461  and  _462
REMARK  198  A    between atoms: _465  and  _467
REMARK  199  A    between atoms: _467  and  _468
REMARK  200  A    between atoms: _467  and  _470
REMARK  201  A    between atoms: _470  and  _471
REMARK  202  A    between atoms: _473  and  _475
REMARK  203  A    between atoms: _475  and  _476
REMARK  204  A    between atoms: _475  and  _478
REMARK  205  A    between atoms: _478  and  _479
REMARK  206  A    between atoms: _479  and  _480
REMARK  207  A    between atoms: _483  and  _485
REMARK  208  A    between atoms: _485  and  _486
REMARK  209  A    between atoms: _485  and  _488
REMARK  210  A    between atoms: _488  and  _489
REMARK  211  A    between atoms: _492  and  _494
REMARK  212  A    between atoms: _494  and  _495
REMARK  213  A    between atoms: _494  and  _497
REMARK  214  A    between atoms: _497  and  _498
REMARK  215  A    between atoms: _504  and  _506
REMARK  216  A    between atoms: _506  and  _507
REMARK  217  A    between atoms: _506  and  _509
REMARK  218  A    between atoms: _509  and  _510
REMARK  219  A    between atoms: _515  and  _516
REMARK  220  A    between atoms: _518  and  _520
REMARK  221  A    between atoms: _520  and  _521
REMARK  222  A    between atoms: _520  and  _523
REMARK  223  A    between atoms: _523  and  _524
REMARK  224  A    between atoms: _527  and  _529
REMARK  225  A    between atoms: _529  and  _530
REMARK  226  A    between atoms: _529  and  _532
REMARK  227  A    between atoms: _532  and  _533
REMARK  228  A    between atoms: _536  and  _538
REMARK  229  A    between atoms: _538  and  _539
REMARK  230  A    between atoms: _538  and  _541
REMARK  231  A    between atoms: _541  and  _542
REMARK  232  A    between atoms: _547  and  _549
REMARK  233  A    between atoms: _549  and  _550
REMARK  234  A    between atoms: _549  and  _552
REMARK                            x       y       z     vdW  Elec       q    Type
REMARK                         _______ _______ _______ _____ _____    ______ ____
ROOT
ATOM      1  O   HOH     1      14.190  53.575  22.361  0.00  0.00    +0.000 OA
ENDROOT
TORSDOF 0
REMARK  Name = ../refined-set-2016/1m0n/1m0n_pocket.pdb
REMARK  234 active torsions:
REMARK  status: ('A' for Active; 'I' for Inactive)
REMARK    1  A    between atoms: _1  and  _3
REMARK    2  A    between atoms: _3  and  _4
REMARK    3  A    between atoms: _3  and  _6
REMARK    4  A    between atoms: _6  and  _7
REMARK    5  A    between atoms: _10  and  _12
REMARK    6  A    between atoms: _12  and  _13
REMARK    7  A    between atoms: _12  and  _15
REMARK    8  A    between atoms: _15  and  _16
REMARK    9  A    between atoms: _18  and  _20
REMARK   10  A    between atoms: _20  and  _21
REMARK   11  A    between atoms: _23  and  _25
REMARK   12  A    between atoms: _25  and  _26
REMARK   13  A    between atoms: _25  and  _28
REMARK   14  A    between atoms: _28  and  _29
REMARK   15  A    between atoms: _29  and  _30
REMARK   16  A    between atoms: _35  and  _37
REMARK   17  A    between atoms: _37  and  _38
REMARK   18  A    between atoms: _37  and  _40
REMARK   19  A    between atoms: _40  and  _41
REMARK   20  A    between atoms: _41  and  _42
REMARK   21  A    between atoms: _44  and  _46
REMARK   22  A    between atoms: _46  and  _47
REMARK   23  A    between atoms: _46  and  _49
REMARK   24  A    between atoms: _49  and  _50
REMARK   25  A    between atoms: _52  and  _54
REMARK   26  A    between atoms: _54  and  _55
REMARK   27  A    between atoms: _54  and  _57
REMARK   28  A    between atoms: _57  and  _58
REMARK   29  A    between atoms: _60  and  _62
REMARK   30  A    between atoms: _62  and  _63
REMARK   31  A    between atoms: _62  and  _65
REMARK   32  A    between atoms: _65  and  _66
REMARK   33  A    between atoms: _69  and  _71
REMARK   34  A    between atoms: _71  and  _72
REMARK   35  A    between atoms: _74  and  _76
REMARK   36  A    between atoms: _76  and  _77
REMARK   37  A    between atoms: _80  and  _82
REMARK   38  A    between atoms: _82  and  _83
REMARK   39  A    between atoms: _82  and  _85
REMARK   40  A    between atoms: _85  and  _86
REMARK   41  A    between atoms: _86  and  _87
REMARK   42  A    between atoms: _90  and  _92
REMARK   43  A    between atoms: _92  and  _93
REMARK   44  A    between atoms: _92  and  _95
REMARK   45  A    between atoms: _95  and  _96
REMARK   46  A    between atoms: _98  and  _100
REMARK   47  A    between atoms: _100  and  _101
REMARK   48  A    between atoms: _100  and  _103
REMARK   49  A    between atoms: _103  and  _104
REMARK   50  A    between atoms: _109  and  _111
REMARK   51  A    between atoms: _111  and  _112
REMARK   52  A    between atoms: _111  and  _114
REMARK   53  A    between atoms: _114  and  _115
REMARK   54  A    between atoms: _115  and  _116
REMARK   55  A    between atoms: _119  and  _121
REMARK   56  A    between atoms: _121  and  _122
REMARK   57  A    between atoms: _121  and  _124
REMARK   58  A    between atoms: _124  and  _125
REMARK   59  A    between atoms: _127  and  _129
REMARK   60  A    between atoms: _129  and  _130
REMARK   61  A    between atoms: _129  and  _132
REMARK   62  A    between atoms: _132  and  _133
REMARK   63  A    between atoms: _143  and  _145
REMARK   64  A    between atoms: _145  and  _146
REMARK   65  A    between atoms: _145  and  _148
REMARK   66  A    between atoms: _148  and  _149
REMARK   67  A    between atoms: _154  and  _156
REMARK   68  A    between atoms: _156  and  _157
REMARK   69  A    between atoms: _159  and  _161
REMARK   70  A    between atoms: _161  and  _162
REMARK   71  A    between atoms: _161  and  _164
REMARK   72  A    between atoms: _164  and  _165
REMARK   73  A    between atoms: _165  and  _166
REMARK   74  A    between atoms: _168  and  _170
REMARK   75  A    between atoms: _170  and  _171
REMARK   76  A    between atoms: _170  and  _173
REMARK   77  A    between atoms: _173  and  _174
REMARK   78  A    between atoms: _177  and  _179
REMARK   79  A    between atoms: _179  and  _180
REMARK   80  A    between atoms: _183  and  _185
REMARK   81  A    between atoms: _185  and  _186
REMARK   82  A    between atoms: _185  and  _188
REMARK   83  A    between atoms: _188  and  _189
REMARK   84  A    between atoms: _192  and  _194
REMARK   85  A    between atoms: _194  and  _195
REMARK   86  A    between atoms: _194  and  _197
REMARK   87  A    between atoms: _197  and  _198
REMARK   88  A    between atoms: _200  and  _202
REMARK   89  A    between atoms: _202  and  _203
REMARK   90  A    between atoms: _202  and  _205
REMARK   91  A    between atoms: _205  and  _206
REMARK   92  A    between atoms: _209  and  _211
REMARK   93  A    between atoms: _211  and  _212
REMARK   94  A    between atoms: _215  and  _217
REMARK   95  A    between atoms: _217  and  _218
REMARK   96  A    between atoms: _217  and  _220
REMARK   97  A    between atoms: _220  and  _221
REMARK   98  A    between atoms: _221  and  _222
REMARK   99  A    between atoms: _226  and  _227
REMARK  100  A    between atoms: _232  and  _234
REMARK  101  A    between atoms: _234  and  _235
REMARK  102  A    between atoms: _234  and  _237
REMARK  103  A    between atoms: _237  and  _238
REMARK  104  A    between atoms: _241  and  _243
REMARK  105  A    between atoms: _243  and  _244
REMARK  106  A    between atoms: _243  and  _246
REMARK  107  A    between atoms: _246  and  _247
REMARK  108  A    between atoms: _250  and  _252
REMARK  109  A    between atoms: _252  and  _253
REMARK  110  A    between atoms: _252  and  _255
REMARK  111  A    between atoms: _255  and  _256
REMARK  112  A    between atoms: _258  and  _260
REMARK  113  A    between atoms: _260  and  _261
REMARK  114  A    between atoms: _260  and  _263
REMARK  115  A    between atoms: _263  and  _264
REMARK  116  A    between atoms: _266  and  _268
REMARK  117  A    between atoms: _268  and  _269
REMARK  118  A    between atoms: _271  and  _273
REMARK  119  A    between atoms: _273  and  _274
REMARK  120  A    between atoms: _276  and  _278
REMARK  121  A    between atoms: _278  and  _279
REMARK  122  A    between atoms: _278  and  _281
REMARK  123  A    between atoms: _281  and  _282
REMARK  124  A    between atoms: _285  and  _287
REMARK  125  A    between atoms: _287  and  _288
REMARK  126  A    between atoms: _287  and  _290
REMARK  127  A    between atoms: _290  and  _291
REMARK  128  A    between atoms: _291  and  _292
REMARK  129  A    between atoms: _295  and  _297
REMARK  130  A    between atoms: _297  and  _298
REMARK  131  A    between atoms: _301  and  _303
REMARK  132  A    between atoms: _303  and  _304
REMARK  133  A    between atoms: _303  and  _306
REMARK  134  A    between atoms: _306  and  _307
REMARK  135  A    between atoms: _307  and  _308
REMARK  136  A    between atoms: _313  and  _315
REMARK  137  A    between atoms: _315  and  _316
REMARK  138  A    between atoms: _315  and  _318
REMARK  139  A    between atoms: _318  and  _319
REMARK  140  A    between atoms: _322  and  _324
REMARK  141  A    between atoms: _324  and  _325
REMARK  142  A    between atoms: _327  and  _329
REMARK  143  A    between atoms: _329  and  _330
REMARK  144  A    between atoms: _329  and  _332
REMARK  145  A    between atoms: _332  and  _333
REMARK  146  A    between atoms: _336  and  _338
REMARK  147  A    between atoms: _338  and  _339
REMARK  148  A    between atoms: _338  and  _341
REMARK  149  A    between atoms: _341  and  _342
REMARK  150  A    between atoms: _345  and  _347
REMARK  151  A    between atoms: _347  and  _348
REMARK  152  A    between atoms: _347  and  _350
REMARK  153  A    between atoms: _350  and  _351
REMARK  154  A    between atoms: _353  and  _355
REMARK  155  A    between atoms: _355  and  _356
REMARK  156  A    between atoms: _355  and  _358
REMARK  157  A    between atoms: _358  and  _359
REMARK  158  A    between atoms: _359  and  _360
REMARK  159  A    between atoms: _360  and  _361
REMARK  160  A    between atoms: _361  and  _362
REMARK  161  A    between atoms: _367  and  _368
REMARK  162  A    between atoms: _373  and  _375
REMARK  163  A    between atoms: _375  and  _376
REMARK  164  A    between atoms: _375  and  _378
REMARK  165  A    between atoms: _378  and  _379
REMARK  166  A    between atoms: _382  and  _384
REMARK  167  A    between atoms: _384  and  _385
REMARK  168  A    between atoms: _388  and  _390
REMARK  169  A    between atoms: _390  and  _391
REMARK  170  A    between atoms: _390  and  _393
REMARK  171  A    between atoms: _393  and  _394
REMARK  172  A    between atoms: _399  and  _401
REMARK  173  A    between atoms: _401  and  _402
REMARK  174  A    between atoms: _401  and  _404
REMARK  175  A    between atoms: _407  and  _409
REMARK  176  A    between atoms: _409  and  _410
REMARK  177  A    between atoms: _409  and  _412
REMARK  178  A    between atoms: _412  and  _413
REMARK  179  A    between atoms: _413  and  _414
REMARK  180  A    between atoms: _414  and  _415
REMARK  181  A    between atoms: _424  and  _426
REMARK  182  A    between atoms: _426  and  _427
REMARK  183  A    between atoms: _426  and  _429
REMARK  184  A    between atoms: _429  and  _430
REMARK  185  A    between atoms: _435  and  _437
REMARK  186  A    between atoms: _437  and  _438
REMARK  187  A    between atoms: _437  and  _440
REMARK  188  A    between atoms: _440  and  _441
REMARK  189  A    between atoms: _447  and  _449
REMARK  190  A    between atoms: _449  and  _450
REMARK  191  A    between atoms: _449  and  _452
REMARK  192  A    between atoms: _452  and  _453
REMARK  193  A    between atoms: _455  and  _457
REMARK  194  A    between atoms: _457  and  _458
REMARK  195  A    between atoms: _457  and  _460
REMARK  196  A    between atoms: _460  and  _461
REMARK  197  A    between atoms: _461  and  _462
REMARK  198  A    between atoms: _465  and  _467
REMARK  199  A    between atoms: _467  and  _468
REMARK  200  A    between atoms: _467  and  _470
REMARK  201  A    between atoms: _470  and  _471
REMARK  202  A    between atoms: _473  and  _475
REMARK  203  A    between atoms: _475  and  _476
REMARK  204  A    between atoms: _475  and  _478
REMARK  205  A    between atoms: _478  and  _479
REMARK  206  A    between atoms: _479  and  _480
REMARK  207  A    between atoms: _483  and  _485
REMARK  208  A    between atoms: _485  and  _486
REMARK  209  A    between atoms: _485  and  _488
REMARK  210  A    between atoms: _488  and  _489
REMARK  211  A    between atoms: _492  and  _494
REMARK  212  A    between atoms: _494  and  _495
REMARK  213  A    between atoms: _494  and  _497
REMARK  214  A    between atoms: _497  and  _498
REMARK  215  A    between atoms: _504  and  _506
REMARK  216  A    between atoms: _506  and  _507
REMARK  217  A    between atoms: _506  and  _509
REMARK  218  A    between atoms: _509  and  _510
REMARK  219  A    between atoms: _515  and  _516
REMARK  220  A    between atoms: _518  and  _520
REMARK  221  A    between atoms: _520  and  _521
REMARK  222  A    between atoms: _520  and  _523
REMARK  223  A    between atoms: _523  and  _524
REMARK  224  A    between atoms: _527  and  _529
REMARK  225  A    between atoms: _529  and  _530
REMARK  226  A    between atoms: _529  and  _532
REMARK  227  A    between atoms: _532  and  _533
REMARK  228  A    between atoms: _536  and  _538
REMARK  229  A    between atoms: _538  and  _539
REMARK  230  A    between atoms: _538  and  _541
REMARK  231  A    between atoms: _541  and  _542
REMARK  232  A    between atoms: _547  and  _549
REMARK  233  A    between atoms: _549  and  _550
REMARK  234  A    between atoms: _549  and  _552
REMARK                            x       y       z     vdW  Elec       q    Type
REMARK                         _______ _______ _______ _____ _____    ______ ____
ROOT
ATOM      1  O   HOH     1      16.752  55.093  23.914  0.00  0.00    +0.000 OA
ENDROOT
TORSDOF 0
REMARK  Name = ../refined-set-2016/1m0n/1m0n_pocket.pdb
REMARK  234 active torsions:
REMARK  status: ('A' for Active; 'I' for Inactive)
REMARK    1  A    between atoms: _1  and  _3
REMARK    2  A    between atoms: _3  and  _4
REMARK    3  A    between atoms: _3  and  _6
REMARK    4  A    between atoms: _6  and  _7
REMARK    5  A    between atoms: _10  and  _12
REMARK    6  A    between atoms: _12  and  _13
REMARK    7  A    between atoms: _12  and  _15
REMARK    8  A    between atoms: _15  and  _16
REMARK    9  A    between atoms: _18  and  _20
REMARK   10  A    between atoms: _20  and  _21
REMARK   11  A    between atoms: _23  and  _25
REMARK   12  A    between atoms: _25  and  _26
REMARK   13  A    between atoms: _25  and  _28
REMARK   14  A    between atoms: _28  and  _29
REMARK   15  A    between atoms: _29  and  _30
REMARK   16  A    between atoms: _35  and  _37
REMARK   17  A    between atoms: _37  and  _38
REMARK   18  A    between atoms: _37  and  _40
REMARK   19  A    between atoms: _40  and  _41
REMARK   20  A    between atoms: _41  and  _42
REMARK   21  A    between atoms: _44  and  _46
REMARK   22  A    between atoms: _46  and  _47
REMARK   23  A    between atoms: _46  and  _49
REMARK   24  A    between atoms: _49  and  _50
REMARK   25  A    between atoms: _52  and  _54
REMARK   26  A    between atoms: _54  and  _55
REMARK   27  A    between atoms: _54  and  _57
REMARK   28  A    between atoms: _57  and  _58
REMARK   29  A    between atoms: _60  and  _62
REMARK   30  A    between atoms: _62  and  _63
REMARK   31  A    between atoms: _62  and  _65
REMARK   32  A    between atoms: _65  and  _66
REMARK   33  A    between atoms: _69  and  _71
REMARK   34  A    between atoms: _71  and  _72
REMARK   35  A    between atoms: _74  and  _76
REMARK   36  A    between atoms: _76  and  _77
REMARK   37  A    between atoms: _80  and  _82
REMARK   38  A    between atoms: _82  and  _83
REMARK   39  A    between atoms: _82  and  _85
REMARK   40  A    between atoms: _85  and  _86
REMARK   41  A    between atoms: _86  and  _87
REMARK   42  A    between atoms: _90  and  _92
REMARK   43  A    between atoms: _92  and  _93
REMARK   44  A    between atoms: _92  and  _95
REMARK   45  A    between atoms: _95  and  _96
REMARK   46  A    between atoms: _98  and  _100
REMARK   47  A    between atoms: _100  and  _101
REMARK   48  A    between atoms: _100  and  _103
REMARK   49  A    between atoms: _103  and  _104
REMARK   50  A    between atoms: _109  and  _111
REMARK   51  A    between atoms: _111  and  _112
REMARK   52  A    between atoms: _111  and  _114
REMARK   53  A    between atoms: _114  and  _115
REMARK   54  A    between atoms: _115  and  _116
REMARK   55  A    between atoms: _119  and  _121
REMARK   56  A    between atoms: _121  and  _122
REMARK   57  A    between atoms: _121  and  _124
REMARK   58  A    between atoms: _124  and  _125
REMARK   59  A    between atoms: _127  and  _129
REMARK   60  A    between atoms: _129  and  _130
REMARK   61  A    between atoms: _129  and  _132
REMARK   62  A    between atoms: _132  and  _133
REMARK   63  A    between atoms: _143  and  _145
REMARK   64  A    between atoms: _145  and  _146
REMARK   65  A    between atoms: _145  and  _148
REMARK   66  A    between atoms: _148  and  _149
REMARK   67  A    between atoms: _154  and  _156
REMARK   68  A    between atoms: _156  and  _157
REMARK   69  A    between atoms: _159  and  _161
REMARK   70  A    between atoms: _161  and  _162
REMARK   71  A    between atoms: _161  and  _164
REMARK   72  A    between atoms: _164  and  _165
REMARK   73  A    between atoms: _165  and  _166
REMARK   74  A    between atoms: _168  and  _170
REMARK   75  A    between atoms: _170  and  _171
REMARK   76  A    between atoms: _170  and  _173
REMARK   77  A    between atoms: _173  and  _174
REMARK   78  A    between atoms: _177  and  _179
REMARK   79  A    between atoms: _179  and  _180
REMARK   80  A    between atoms: _183  and  _185
REMARK   81  A    between atoms: _185  and  _186
REMARK   82  A    between atoms: _185  and  _188
REMARK   83  A    between atoms: _188  and  _189
REMARK   84  A    between atoms: _192  and  _194
REMARK   85  A    between atoms: _194  and  _195
REMARK   86  A    between atoms: _194  and  _197
REMARK   87  A    between atoms: _197  and  _198
REMARK   88  A    between atoms: _200  and  _202
REMARK   89  A    between atoms: _202  and  _203
REMARK   90  A    between atoms: _202  and  _205
REMARK   91  A    between atoms: _205  and  _206
REMARK   92  A    between atoms: _209  and  _211
REMARK   93  A    between atoms: _211  and  _212
REMARK   94  A    between atoms: _215  and  _217
REMARK   95  A    between atoms: _217  and  _218
REMARK   96  A    between atoms: _217  and  _220
REMARK   97  A    between atoms: _220  and  _221
REMARK   98  A    between atoms: _221  and  _222
REMARK   99  A    between atoms: _226  and  _227
REMARK  100  A    between atoms: _232  and  _234
REMARK  101  A    between atoms: _234  and  _235
REMARK  102  A    between atoms: _234  and  _237
REMARK  103  A    between atoms: _237  and  _238
REMARK  104  A    between atoms: _241  and  _243
REMARK  105  A    between atoms: _243  and  _244
REMARK  106  A    between atoms: _243  and  _246
REMARK  107  A    between atoms: _246  and  _247
REMARK  108  A    between atoms: _250  and  _252
REMARK  109  A    between atoms: _252  and  _253
REMARK  110  A    between atoms: _252  and  _255
REMARK  111  A    between atoms: _255  and  _256
REMARK  112  A    between atoms: _258  and  _260
REMARK  113  A    between atoms: _260  and  _261
REMARK  114  A    between atoms: _260  and  _263
REMARK  115  A    between atoms: _263  and  _264
REMARK  116  A    between atoms: _266  and  _268
REMARK  117  A    between atoms: _268  and  _269
REMARK  118  A    between atoms: _271  and  _273
REMARK  119  A    between atoms: _273  and  _274
REMARK  120  A    between atoms: _276  and  _278
REMARK  121  A    between atoms: _278  and  _279
REMARK  122  A    between atoms: _278  and  _281
REMARK  123  A    between atoms: _281  and  _282
REMARK  124  A    between atoms: _285  and  _287
REMARK  125  A    between atoms: _287  and  _288
REMARK  126  A    between atoms: _287  and  _290
REMARK  127  A    between atoms: _290  and  _291
REMARK  128  A    between atoms: _291  and  _292
REMARK  129  A    between atoms: _295  and  _297
REMARK  130  A    between atoms: _297  and  _298
REMARK  131  A    between atoms: _301  and  _303
REMARK  132  A    between atoms: _303  and  _304
REMARK  133  A    between atoms: _303  and  _306
REMARK  134  A    between atoms: _306  and  _307
REMARK  135  A    between atoms: _307  and  _308
REMARK  136  A    between atoms: _313  and  _315
REMARK  137  A    between atoms: _315  and  _316
REMARK  138  A    between atoms: _315  and  _318
REMARK  139  A    between atoms: _318  and  _319
REMARK  140  A    between atoms: _322  and  _324
REMARK  141  A    between atoms: _324  and  _325
REMARK  142  A    between atoms: _327  and  _329
REMARK  143  A    between atoms: _329  and  _330
REMARK  144  A    between atoms: _329  and  _332
REMARK  145  A    between atoms: _332  and  _333
REMARK  146  A    between atoms: _336  and  _338
REMARK  147  A    between atoms: _338  and  _339
REMARK  148  A    between atoms: _338  and  _341
REMARK  149  A    between atoms: _341  and  _342
REMARK  150  A    between atoms: _345  and  _347
REMARK  151  A    between atoms: _347  and  _348
REMARK  152  A    between atoms: _347  and  _350
REMARK  153  A    between atoms: _350  and  _351
REMARK  154  A    between atoms: _353  and  _355
REMARK  155  A    between atoms: _355  and  _356
REMARK  156  A    between atoms: _355  and  _358
REMARK  157  A    between atoms: _358  and  _359
REMARK  158  A    between atoms: _359  and  _360
REMARK  159  A    between atoms: _360  and  _361
REMARK  160  A    between atoms: _361  and  _362
REMARK  161  A    between atoms: _367  and  _368
REMARK  162  A    between atoms: _373  and  _375
REMARK  163  A    between atoms: _375  and  _376
REMARK  164  A    between atoms: _375  and  _378
REMARK  165  A    between atoms: _378  and  _379
REMARK  166  A    between atoms: _382  and  _384
REMARK  167  A    between atoms: _384  and  _385
REMARK  168  A    between atoms: _388  and  _390
REMARK  169  A    between atoms: _390  and  _391
REMARK  170  A    between atoms: _390  and  _393
REMARK  171  A    between atoms: _393  and  _394
REMARK  172  A    between atoms: _399  and  _401
REMARK  173  A    between atoms: _401  and  _402
REMARK  174  A    between atoms: _401  and  _404
REMARK  175  A    between atoms: _407  and  _409
REMARK  176  A    between atoms: _409  and  _410
REMARK  177  A    between atoms: _409  and  _412
REMARK  178  A    between atoms: _412  and  _413
REMARK  179  A    between atoms: _413  and  _414
REMARK  180  A    between atoms: _414  and  _415
REMARK  181  A    between atoms: _424  and  _426
REMARK  182  A    between atoms: _426  and  _427
REMARK  183  A    between atoms: _426  and  _429
REMARK  184  A    between atoms: _429  and  _430
REMARK  185  A    between atoms: _435  and  _437
REMARK  186  A    between atoms: _437  and  _438
REMARK  187  A    between atoms: _437  and  _440
REMARK  188  A    between atoms: _440  and  _441
REMARK  189  A    between atoms: _447  and  _449
REMARK  190  A    between atoms: _449  and  _450
REMARK  191  A    between atoms: _449  and  _452
REMARK  192  A    between atoms: _452  and  _453
REMARK  193  A    between atoms: _455  and  _457
REMARK  194  A    between atoms: _457  and  _458
REMARK  195  A    between atoms: _457  and  _460
REMARK  196  A    between atoms: _460  and  _461
REMARK  197  A    between atoms: _461  and  _462
REMARK  198  A    between atoms: _465  and  _467
REMARK  199  A    between atoms: _467  and  _468
REMARK  200  A    between atoms: _467  and  _470
REMARK  201  A    between atoms: _470  and  _471
REMARK  202  A    between atoms: _473  and  _475
REMARK  203  A    between atoms: _475  and  _476
REMARK  204  A    between atoms: _475  and  _478
REMARK  205  A    between atoms: _478  and  _479
REMARK  206  A    between atoms: _479  and  _480
REMARK  207  A    between atoms: _483  and  _485
REMARK  208  A    between atoms: _485  and  _486
REMARK  209  A    between atoms: _485  and  _488
REMARK  210  A    between atoms: _488  and  _489
REMARK  211  A    between atoms: _492  and  _494
REMARK  212  A    between atoms: _494  and  _495
REMARK  213  A    between atoms: _494  and  _497
REMARK  214  A    between atoms: _497  and  _498
REMARK  215  A    between atoms: _504  and  _506
REMARK  216  A    between atoms: _506  and  _507
REMARK  217  A    between atoms: _506  and  _509
REMARK  218  A    between atoms: _509  and  _510
REMARK  219  A    between atoms: _515  and  _516
REMARK  220  A    between atoms: _518  and  _520
REMARK  221  A    between atoms: _520  and  _521
REMARK  222  A    between atoms: _520  and  _523
REMARK  223  A    between atoms: _523  and  _524
REMARK  224  A    between atoms: _527  and  _529
REMARK  225  A    between atoms: _529  and  _530
REMARK  226  A    between atoms: _529  and  _532
REMARK  227  A    between atoms: _532  and  _533
REMARK  228  A    between atoms: _536  and  _538
REMARK  229  A    between atoms: _538  and  _539
REMARK  230  A    between atoms: _538  and  _541
REMARK  231  A    between atoms: _541  and  _542
REMARK  232  A    between atoms: _547  and  _549
REMARK  233  A    between atoms: _549  and  _550
REMARK  234  A    between atoms: _549  and  _552
REMARK                            x       y       z     vdW  Elec       q    Type
REMARK                         _______ _______ _______ _____ _____    ______ ____
ROOT
ATOM      1  O   HOH     1      17.079  53.393  26.896  0.00  0.00    +0.000 OA
ENDROOT
TORSDOF 0
REMARK  Name = ../refined-set-2016/1m0n/1m0n_pocket.pdb
REMARK  234 active torsions:
REMARK  status: ('A' for Active; 'I' for Inactive)
REMARK    1  A    between atoms: _1  and  _3
REMARK    2  A    between atoms: _3  and  _4
REMARK    3  A    between atoms: _3  and  _6
REMARK    4  A    between atoms: _6  and  _7
REMARK    5  A    between atoms: _10  and  _12
REMARK    6  A    between atoms: _12  and  _13
REMARK    7  A    between atoms: _12  and  _15
REMARK    8  A    between atoms: _15  and  _16
REMARK    9  A    between atoms: _18  and  _20
REMARK   10  A    between atoms: _20  and  _21
REMARK   11  A    between atoms: _23  and  _25
REMARK   12  A    between atoms: _25  and  _26
REMARK   13  A    between atoms: _25  and  _28
REMARK   14  A    between atoms: _28  and  _29
REMARK   15  A    between atoms: _29  and  _30
REMARK   16  A    between atoms: _35  and  _37
REMARK   17  A    between atoms: _37  and  _38
REMARK   18  A    between atoms: _37  and  _40
REMARK   19  A    between atoms: _40  and  _41
REMARK   20  A    between atoms: _41  and  _42
REMARK   21  A    between atoms: _44  and  _46
REMARK   22  A    between atoms: _46  and  _47
REMARK   23  A    between atoms: _46  and  _49
REMARK   24  A    between atoms: _49  and  _50
REMARK   25  A    between atoms: _52  and  _54
REMARK   26  A    between atoms: _54  and  _55
REMARK   27  A    between atoms: _54  and  _57
REMARK   28  A    between atoms: _57  and  _58
REMARK   29  A    between atoms: _60  and  _62
REMARK   30  A    between atoms: _62  and  _63
REMARK   31  A    between atoms: _62  and  _65
REMARK   32  A    between atoms: _65  and  _66
REMARK   33  A    between atoms: _69  and  _71
REMARK   34  A    between atoms: _71  and  _72
REMARK   35  A    between atoms: _74  and  _76
REMARK   36  A    between atoms: _76  and  _77
REMARK   37  A    between atoms: _80  and  _82
REMARK   38  A    between atoms: _82  and  _83
REMARK   39  A    between atoms: _82  and  _85
REMARK   40  A    between atoms: _85  and  _86
REMARK   41  A    between atoms: _86  and  _87
REMARK   42  A    between atoms: _90  and  _92
REMARK   43  A    between atoms: _92  and  _93
REMARK   44  A    between atoms: _92  and  _95
REMARK   45  A    between atoms: _95  and  _96
REMARK   46  A    between atoms: _98  and  _100
REMARK   47  A    between atoms: _100  and  _101
REMARK   48  A    between atoms: _100  and  _103
REMARK   49  A    between atoms: _103  and  _104
REMARK   50  A    between atoms: _109  and  _111
REMARK   51  A    between atoms: _111  and  _112
REMARK   52  A    between atoms: _111  and  _114
REMARK   53  A    between atoms: _114  and  _115
REMARK   54  A    between atoms: _115  and  _116
REMARK   55  A    between atoms: _119  and  _121
REMARK   56  A    between atoms: _121  and  _122
REMARK   57  A    between atoms: _121  and  _124
REMARK   58  A    between atoms: _124  and  _125
REMARK   59  A    between atoms: _127  and  _129
REMARK   60  A    between atoms: _129  and  _130
REMARK   61  A    between atoms: _129  and  _132
REMARK   62  A    between atoms: _132  and  _133
REMARK   63  A    between atoms: _143  and  _145
REMARK   64  A    between atoms: _145  and  _146
REMARK   65  A    between atoms: _145  and  _148
REMARK   66  A    between atoms: _148  and  _149
REMARK   67  A    between atoms: _154  and  _156
REMARK   68  A    between atoms: _156  and  _157
REMARK   69  A    between atoms: _159  and  _161
REMARK   70  A    between atoms: _161  and  _162
REMARK   71  A    between atoms: _161  and  _164
REMARK   72  A    between atoms: _164  and  _165
REMARK   73  A    between atoms: _165  and  _166
REMARK   74  A    between atoms: _168  and  _170
REMARK   75  A    between atoms: _170  and  _171
REMARK   76  A    between atoms: _170  and  _173
REMARK   77  A    between atoms: _173  and  _174
REMARK   78  A    between atoms: _177  and  _179
REMARK   79  A    between atoms: _179  and  _180
REMARK   80  A    between atoms: _183  and  _185
REMARK   81  A    between atoms: _185  and  _186
REMARK   82  A    between atoms: _185  and  _188
REMARK   83  A    between atoms: _188  and  _189
REMARK   84  A    between atoms: _192  and  _194
REMARK   85  A    between atoms: _194  and  _195
REMARK   86  A    between atoms: _194  and  _197
REMARK   87  A    between atoms: _197  and  _198
REMARK   88  A    between atoms: _200  and  _202
REMARK   89  A    between atoms: _202  and  _203
REMARK   90  A    between atoms: _202  and  _205
REMARK   91  A    between atoms: _205  and  _206
REMARK   92  A    between atoms: _209  and  _211
REMARK   93  A    between atoms: _211  and  _212
REMARK   94  A    between atoms: _215  and  _217
REMARK   95  A    between atoms: _217  and  _218
REMARK   96  A    between atoms: _217  and  _220
REMARK   97  A    between atoms: _220  and  _221
REMARK   98  A    between atoms: _221  and  _222
REMARK   99  A    between atoms: _226  and  _227
REMARK  100  A    between atoms: _232  and  _234
REMARK  101  A    between atoms: _234  and  _235
REMARK  102  A    between atoms: _234  and  _237
REMARK  103  A    between atoms: _237  and  _238
REMARK  104  A    between atoms: _241  and  _243
REMARK  105  A    between atoms: _243  and  _244
REMARK  106  A    between atoms: _243  and  _246
REMARK  107  A    between atoms: _246  and  _247
REMARK  108  A    between atoms: _250  and  _252
REMARK  109  A    between atoms: _252  and  _253
REMARK  110  A    between atoms: _252  and  _255
REMARK  111  A    between atoms: _255  and  _256
REMARK  112  A    between atoms: _258  and  _260
REMARK  113  A    between atoms: _260  and  _261
REMARK  114  A    between atoms: _260  and  _263
REMARK  115  A    between atoms: _263  and  _264
REMARK  116  A    between atoms: _266  and  _268
REMARK  117  A    between atoms: _268  and  _269
REMARK  118  A    between atoms: _271  and  _273
REMARK  119  A    between atoms: _273  and  _274
REMARK  120  A    between atoms: _276  and  _278
REMARK  121  A    between atoms: _278  and  _279
REMARK  122  A    between atoms: _278  and  _281
REMARK  123  A    between atoms: _281  and  _282
REMARK  124  A    between atoms: _285  and  _287
REMARK  125  A    between atoms: _287  and  _288
REMARK  126  A    between atoms: _287  and  _290
REMARK  127  A    between atoms: _290  and  _291
REMARK  128  A    between atoms: _291  and  _292
REMARK  129  A    between atoms: _295  and  _297
REMARK  130  A    between atoms: _297  and  _298
REMARK  131  A    between atoms: _301  and  _303
REMARK  132  A    between atoms: _303  and  _304
REMARK  133  A    between atoms: _303  and  _306
REMARK  134  A    between atoms: _306  and  _307
REMARK  135  A    between atoms: _307  and  _308
REMARK  136  A    between atoms: _313  and  _315
REMARK  137  A    between atoms: _315  and  _316
REMARK  138  A    between atoms: _315  and  _318
REMARK  139  A    between atoms: _318  and  _319
REMARK  140  A    between atoms: _322  and  _324
REMARK  141  A    between atoms: _324  and  _325
REMARK  142  A    between atoms: _327  and  _329
REMARK  143  A    between atoms: _329  and  _330
REMARK  144  A    between atoms: _329  and  _332
REMARK  145  A    between atoms: _332  and  _333
REMARK  146  A    between atoms: _336  and  _338
REMARK  147  A    between atoms: _338  and  _339
REMARK  148  A    between atoms: _338  and  _341
REMARK  149  A    between atoms: _341  and  _342
REMARK  150  A    between atoms: _345  and  _347
REMARK  151  A    between atoms: _347  and  _348
REMARK  152  A    between atoms: _347  and  _350
REMARK  153  A    between atoms: _350  and  _351
REMARK  154  A    between atoms: _353  and  _355
REMARK  155  A    between atoms: _355  and  _356
REMARK  156  A    between atoms: _355  and  _358
REMARK  157  A    between atoms: _358  and  _359
REMARK  158  A    between atoms: _359  and  _360
REMARK  159  A    between atoms: _360  and  _361
REMARK  160  A    between atoms: _361  and  _362
REMARK  161  A    between atoms: _367  and  _368
REMARK  162  A    between atoms: _373  and  _375
REMARK  163  A    between atoms: _375  and  _376
REMARK  164  A    between atoms: _375  and  _378
REMARK  165  A    between atoms: _378  and  _379
REMARK  166  A    between atoms: _382  and  _384
REMARK  167  A    between atoms: _384  and  _385
REMARK  168  A    between atoms: _388  and  _390
REMARK  169  A    between atoms: _390  and  _391
REMARK  170  A    between atoms: _390  and  _393
REMARK  171  A    between atoms: _393  and  _394
REMARK  172  A    between atoms: _399  and  _401
REMARK  173  A    between atoms: _401  and  _402
REMARK  174  A    between atoms: _401  and  _404
REMARK  175  A    between atoms: _407  and  _409
REMARK  176  A    between atoms: _409  and  _410
REMARK  177  A    between atoms: _409  and  _412
REMARK  178  A    between atoms: _412  and  _413
REMARK  179  A    between atoms: _413  and  _414
REMARK  180  A    between atoms: _414  and  _415
REMARK  181  A    between atoms: _424  and  _426
REMARK  182  A    between atoms: _426  and  _427
REMARK  183  A    between atoms: _426  and  _429
REMARK  184  A    between atoms: _429  and  _430
REMARK  185  A    between atoms: _435  and  _437
REMARK  186  A    between atoms: _437  and  _438
REMARK  187  A    between atoms: _437  and  _440
REMARK  188  A    between atoms: _440  and  _441
REMARK  189  A    between atoms: _447  and  _449
REMARK  190  A    between atoms: _449  and  _450
REMARK  191  A    between atoms: _449  and  _452
REMARK  192  A    between atoms: _452  and  _453
REMARK  193  A    between atoms: _455  and  _457
REMARK  194  A    between atoms: _457  and  _458
REMARK  195  A    between atoms: _457  and  _460
REMARK  196  A    between atoms: _460  and  _461
REMARK  197  A    between atoms: _461  and  _462
REMARK  198  A    between atoms: _465  and  _467
REMARK  199  A    between atoms: _467  and  _468
REMARK  200  A    between atoms: _467  and  _470
REMARK  201  A    between atoms: _470  and  _471
REMARK  202  A    between atoms: _473  and  _475
REMARK  203  A    between atoms: _475  and  _476
REMARK  204  A    between atoms: _475  and  _478
REMARK  205  A    between atoms: _478  and  _479
REMARK  206  A    between atoms: _479  and  _480
REMARK  207  A    between atoms: _483  and  _485
REMARK  208  A    between atoms: _485  and  _486
REMARK  209  A    between atoms: _485  and  _488
REMARK  210  A    between atoms: _488  and  _489
REMARK  211  A    between atoms: _492  and  _494
REMARK  212  A    between atoms: _494  and  _495
REMARK  213  A    between atoms: _494  and  _497
REMARK  214  A    between atoms: _497  and  _498
REMARK  215  A    between atoms: _504  and  _506
REMARK  216  A    between atoms: _506  and  _507
REMARK  217  A    between atoms: _506  and  _509
REMARK  218  A    between atoms: _509  and  _510
REMARK  219  A    between atoms: _515  and  _516
REMARK  220  A    between atoms: _518  and  _520
REMARK  221  A    between atoms: _520  and  _521
REMARK  222  A    between atoms: _520  and  _523
REMARK  223  A    between atoms: _523  and  _524
REMARK  224  A    between atoms: _527  and  _529
REMARK  225  A    between atoms: _529  and  _530
REMARK  226  A    between atoms: _529  and  _532
REMARK  227  A    between atoms: _532  and  _533
REMARK  228  A    between atoms: _536  and  _538
REMARK  229  A    between atoms: _538  and  _539
REMARK  230  A    between atoms: _538  and  _541
REMARK  231  A    between atoms: _541  and  _542
REMARK  232  A    between atoms: _547  and  _549
REMARK  233  A    between atoms: _549  and  _550
REMARK  234  A    between atoms: _549  and  _552
REMARK                            x       y       z     vdW  Elec       q    Type
REMARK                         _______ _______ _______ _____ _____    ______ ____
ROOT
ATOM      1  O   HOH     1      15.524  58.477  24.650  0.00  0.00    +0.000 OA
ENDROOT
TORSDOF 0
REMARK  Name = ../refined-set-2016/1m0n/1m0n_pocket.pdb
REMARK  234 active torsions:
REMARK  status: ('A' for Active; 'I' for Inactive)
REMARK    1  A    between atoms: _1  and  _3
REMARK    2  A    between atoms: _3  and  _4
REMARK    3  A    between atoms: _3  and  _6
REMARK    4  A    between atoms: _6  and  _7
REMARK    5  A    between atoms: _10  and  _12
REMARK    6  A    between atoms: _12  and  _13
REMARK    7  A    between atoms: _12  and  _15
REMARK    8  A    between atoms: _15  and  _16
REMARK    9  A    between atoms: _18  and  _20
REMARK   10  A    between atoms: _20  and  _21
REMARK   11  A    between atoms: _23  and  _25
REMARK   12  A    between atoms: _25  and  _26
REMARK   13  A    between atoms: _25  and  _28
REMARK   14  A    between atoms: _28  and  _29
REMARK   15  A    between atoms: _29  and  _30
REMARK   16  A    between atoms: _35  and  _37
REMARK   17  A    between atoms: _37  and  _38
REMARK   18  A    between atoms: _37  and  _40
REMARK   19  A    between atoms: _40  and  _41
REMARK   20  A    between atoms: _41  and  _42
REMARK   21  A    between atoms: _44  and  _46
REMARK   22  A    between atoms: _46  and  _47
REMARK   23  A    between atoms: _46  and  _49
REMARK   24  A    between atoms: _49  and  _50
REMARK   25  A    between atoms: _52  and  _54
REMARK   26  A    between atoms: _54  and  _55
REMARK   27  A    between atoms: _54  and  _57
REMARK   28  A    between atoms: _57  and  _58
REMARK   29  A    between atoms: _60  and  _62
REMARK   30  A    between atoms: _62  and  _63
REMARK   31  A    between atoms: _62  and  _65
REMARK   32  A    between atoms: _65  and  _66
REMARK   33  A    between atoms: _69  and  _71
REMARK   34  A    between atoms: _71  and  _72
REMARK   35  A    between atoms: _74  and  _76
REMARK   36  A    between atoms: _76  and  _77
REMARK   37  A    between atoms: _80  and  _82
REMARK   38  A    between atoms: _82  and  _83
REMARK   39  A    between atoms: _82  and  _85
REMARK   40  A    between atoms: _85  and  _86
REMARK   41  A    between atoms: _86  and  _87
REMARK   42  A    between atoms: _90  and  _92
REMARK   43  A    between atoms: _92  and  _93
REMARK   44  A    between atoms: _92  and  _95
REMARK   45  A    between atoms: _95  and  _96
REMARK   46  A    between atoms: _98  and  _100
REMARK   47  A    between atoms: _100  and  _101
REMARK   48  A    between atoms: _100  and  _103
REMARK   49  A    between atoms: _103  and  _104
REMARK   50  A    between atoms: _109  and  _111
REMARK   51  A    between atoms: _111  and  _112
REMARK   52  A    between atoms: _111  and  _114
REMARK   53  A    between atoms: _114  and  _115
REMARK   54  A    between atoms: _115  and  _116
REMARK   55  A    between atoms: _119  and  _121
REMARK   56  A    between atoms: _121  and  _122
REMARK   57  A    between atoms: _121  and  _124
REMARK   58  A    between atoms: _124  and  _125
REMARK   59  A    between atoms: _127  and  _129
REMARK   60  A    between atoms: _129  and  _130
REMARK   61  A    between atoms: _129  and  _132
REMARK   62  A    between atoms: _132  and  _133
REMARK   63  A    between atoms: _143  and  _145
REMARK   64  A    between atoms: _145  and  _146
REMARK   65  A    between atoms: _145  and  _148
REMARK   66  A    between atoms: _148  and  _149
REMARK   67  A    between atoms: _154  and  _156
REMARK   68  A    between atoms: _156  and  _157
REMARK   69  A    between atoms: _159  and  _161
REMARK   70  A    between atoms: _161  and  _162
REMARK   71  A    between atoms: _161  and  _164
REMARK   72  A    between atoms: _164  and  _165
REMARK   73  A    between atoms: _165  and  _166
REMARK   74  A    between atoms: _168  and  _170
REMARK   75  A    between atoms: _170  and  _171
REMARK   76  A    between atoms: _170  and  _173
REMARK   77  A    between atoms: _173  and  _174
REMARK   78  A    between atoms: _177  and  _179
REMARK   79  A    between atoms: _179  and  _180
REMARK   80  A    between atoms: _183  and  _185
REMARK   81  A    between atoms: _185  and  _186
REMARK   82  A    between atoms: _185  and  _188
REMARK   83  A    between atoms: _188  and  _189
REMARK   84  A    between atoms: _192  and  _194
REMARK   85  A    between atoms: _194  and  _195
REMARK   86  A    between atoms: _194  and  _197
REMARK   87  A    between atoms: _197  and  _198
REMARK   88  A    between atoms: _200  and  _202
REMARK   89  A    between atoms: _202  and  _203
REMARK   90  A    between atoms: _202  and  _205
REMARK   91  A    between atoms: _205  and  _206
REMARK   92  A    between atoms: _209  and  _211
REMARK   93  A    between atoms: _211  and  _212
REMARK   94  A    between atoms: _215  and  _217
REMARK   95  A    between atoms: _217  and  _218
REMARK   96  A    between atoms: _217  and  _220
REMARK   97  A    between atoms: _220  and  _221
REMARK   98  A    between atoms: _221  and  _222
REMARK   99  A    between atoms: _226  and  _227
REMARK  100  A    between atoms: _232  and  _234
REMARK  101  A    between atoms: _234  and  _235
REMARK  102  A    between atoms: _234  and  _237
REMARK  103  A    between atoms: _237  and  _238
REMARK  104  A    between atoms: _241  and  _243
REMARK  105  A    between atoms: _243  and  _244
REMARK  106  A    between atoms: _243  and  _246
REMARK  107  A    between atoms: _246  and  _247
REMARK  108  A    between atoms: _250  and  _252
REMARK  109  A    between atoms: _252  and  _253
REMARK  110  A    between atoms: _252  and  _255
REMARK  111  A    between atoms: _255  and  _256
REMARK  112  A    between atoms: _258  and  _260
REMARK  113  A    between atoms: _260  and  _261
REMARK  114  A    between atoms: _260  and  _263
REMARK  115  A    between atoms: _263  and  _264
REMARK  116  A    between atoms: _266  and  _268
REMARK  117  A    between atoms: _268  and  _269
REMARK  118  A    between atoms: _271  and  _273
REMARK  119  A    between atoms: _273  and  _274
REMARK  120  A    between atoms: _276  and  _278
REMARK  121  A    between atoms: _278  and  _279
REMARK  122  A    between atoms: _278  and  _281
REMARK  123  A    between atoms: _281  and  _282
REMARK  124  A    between atoms: _285  and  _287
REMARK  125  A    between atoms: _287  and  _288
REMARK  126  A    between atoms: _287  and  _290
REMARK  127  A    between atoms: _290  and  _291
REMARK  128  A    between atoms: _291  and  _292
REMARK  129  A    between atoms: _295  and  _297
REMARK  130  A    between atoms: _297  and  _298
REMARK  131  A    between atoms: _301  and  _303
REMARK  132  A    between atoms: _303  and  _304
REMARK  133  A    between atoms: _303  and  _306
REMARK  134  A    between atoms: _306  and  _307
REMARK  135  A    between atoms: _307  and  _308
REMARK  136  A    between atoms: _313  and  _315
REMARK  137  A    between atoms: _315  and  _316
REMARK  138  A    between atoms: _315  and  _318
REMARK  139  A    between atoms: _318  and  _319
REMARK  140  A    between atoms: _322  and  _324
REMARK  141  A    between atoms: _324  and  _325
REMARK  142  A    between atoms: _327  and  _329
REMARK  143  A    between atoms: _329  and  _330
REMARK  144  A    between atoms: _329  and  _332
REMARK  145  A    between atoms: _332  and  _333
REMARK  146  A    between atoms: _336  and  _338
REMARK  147  A    between atoms: _338  and  _339
REMARK  148  A    between atoms: _338  and  _341
REMARK  149  A    between atoms: _341  and  _342
REMARK  150  A    between atoms: _345  and  _347
REMARK  151  A    between atoms: _347  and  _348
REMARK  152  A    between atoms: _347  and  _350
REMARK  153  A    between atoms: _350  and  _351
REMARK  154  A    between atoms: _353  and  _355
REMARK  155  A    between atoms: _355  and  _356
REMARK  156  A    between atoms: _355  and  _358
REMARK  157  A    between atoms: _358  and  _359
REMARK  158  A    between atoms: _359  and  _360
REMARK  159  A    between atoms: _360  and  _361
REMARK  160  A    between atoms: _361  and  _362
REMARK  161  A    between atoms: _367  and  _368
REMARK  162  A    between atoms: _373  and  _375
REMARK  163  A    between atoms: _375  and  _376
REMARK  164  A    between atoms: _375  and  _378
REMARK  165  A    between atoms: _378  and  _379
REMARK  166  A    between atoms: _382  and  _384
REMARK  167  A    between atoms: _384  and  _385
REMARK  168  A    between atoms: _388  and  _390
REMARK  169  A    between atoms: _390  and  _391
REMARK  170  A    between atoms: _390  and  _393
REMARK  171  A    between atoms: _393  and  _394
REMARK  172  A    between atoms: _399  and  _401
REMARK  173  A    between atoms: _401  and  _402
REMARK  174  A    between atoms: _401  and  _404
REMARK  175  A    between atoms: _407  and  _409
REMARK  176  A    between atoms: _409  and  _410
REMARK  177  A    between atoms: _409  and  _412
REMARK  178  A    between atoms: _412  and  _413
REMARK  179  A    between atoms: _413  and  _414
REMARK  180  A    between atoms: _414  and  _415
REMARK  181  A    between atoms: _424  and  _426
REMARK  182  A    between atoms: _426  and  _427
REMARK  183  A    between atoms: _426  and  _429
REMARK  184  A    between atoms: _429  and  _430
REMARK  185  A    between atoms: _435  and  _437
REMARK  186  A    between atoms: _437  and  _438
REMARK  187  A    between atoms: _437  and  _440
REMARK  188  A    between atoms: _440  and  _441
REMARK  189  A    between atoms: _447  and  _449
REMARK  190  A    between atoms: _449  and  _450
REMARK  191  A    between atoms: _449  and  _452
REMARK  192  A    between atoms: _452  and  _453
REMARK  193  A    between atoms: _455  and  _457
REMARK  194  A    between atoms: _457  and  _458
REMARK  195  A    between atoms: _457  and  _460
REMARK  196  A    between atoms: _460  and  _461
REMARK  197  A    between atoms: _461  and  _462
REMARK  198  A    between atoms: _465  and  _467
REMARK  199  A    between atoms: _467  and  _468
REMARK  200  A    between atoms: _467  and  _470
REMARK  201  A    between atoms: _470  and  _471
REMARK  202  A    between atoms: _473  and  _475
REMARK  203  A    between atoms: _475  and  _476
REMARK  204  A    between atoms: _475  and  _478
REMARK  205  A    between atoms: _478  and  _479
REMARK  206  A    between atoms: _479  and  _480
REMARK  207  A    between atoms: _483  and  _485
REMARK  208  A    between atoms: _485  and  _486
REMARK  209  A    between atoms: _485  and  _488
REMARK  210  A    between atoms: _488  and  _489
REMARK  211  A    between atoms: _492  and  _494
REMARK  212  A    between atoms: _494  and  _495
REMARK  213  A    between atoms: _494  and  _497
REMARK  214  A    between atoms: _497  and  _498
REMARK  215  A    between atoms: _504  and  _506
REMARK  216  A    between atoms: _506  and  _507
REMARK  217  A    between atoms: _506  and  _509
REMARK  218  A    between atoms: _509  and  _510
REMARK  219  A    between atoms: _515  and  _516
REMARK  220  A    between atoms: _518  and  _520
REMARK  221  A    between atoms: _520  and  _521
REMARK  222  A    between atoms: _520  and  _523
REMARK  223  A    between atoms: _523  and  _524
REMARK  224  A    between atoms: _527  and  _529
REMARK  225  A    between atoms: _529  and  _530
REMARK  226  A    between atoms: _529  and  _532
REMARK  227  A    between atoms: _532  and  _533
REMARK  228  A    between atoms: _536  and  _538
REMARK  229  A    between atoms: _538  and  _539
REMARK  230  A    between atoms: _538  and  _541
REMARK  231  A    between atoms: _541  and  _542
REMARK  232  A    between atoms: _547  and  _549
REMARK  233  A    between atoms: _549  and  _550
REMARK  234  A    between atoms: _549  and  _552
REMARK                            x       y       z     vdW  Elec       q    Type
REMARK                         _______ _______ _______ _____ _____    ______ ____
ROOT
ATOM      1  O   HOH     1      22.646  43.586  19.026  0.00  0.00    +0.000 OA
ENDROOT
TORSDOF 0
REMARK  Name = ../refined-set-2016/1m0n/1m0n_pocket.pdb
REMARK  234 active torsions:
REMARK  status: ('A' for Active; 'I' for Inactive)
REMARK    1  A    between atoms: _1  and  _3
REMARK    2  A    between atoms: _3  and  _4
REMARK    3  A    between atoms: _3  and  _6
REMARK    4  A    between atoms: _6  and  _7
REMARK    5  A    between atoms: _10  and  _12
REMARK    6  A    between atoms: _12  and  _13
REMARK    7  A    between atoms: _12  and  _15
REMARK    8  A    between atoms: _15  and  _16
REMARK    9  A    between atoms: _18  and  _20
REMARK   10  A    between atoms: _20  and  _21
REMARK   11  A    between atoms: _23  and  _25
REMARK   12  A    between atoms: _25  and  _26
REMARK   13  A    between atoms: _25  and  _28
REMARK   14  A    between atoms: _28  and  _29
REMARK   15  A    between atoms: _29  and  _30
REMARK   16  A    between atoms: _35  and  _37
REMARK   17  A    between atoms: _37  and  _38
REMARK   18  A    between atoms: _37  and  _40
REMARK   19  A    between atoms: _40  and  _41
REMARK   20  A    between atoms: _41  and  _42
REMARK   21  A    between atoms: _44  and  _46
REMARK   22  A    between atoms: _46  and  _47
REMARK   23  A    between atoms: _46  and  _49
REMARK   24  A    between atoms: _49  and  _50
REMARK   25  A    between atoms: _52  and  _54
REMARK   26  A    between atoms: _54  and  _55
REMARK   27  A    between atoms: _54  and  _57
REMARK   28  A    between atoms: _57  and  _58
REMARK   29  A    between atoms: _60  and  _62
REMARK   30  A    between atoms: _62  and  _63
REMARK   31  A    between atoms: _62  and  _65
REMARK   32  A    between atoms: _65  and  _66
REMARK   33  A    between atoms: _69  and  _71
REMARK   34  A    between atoms: _71  and  _72
REMARK   35  A    between atoms: _74  and  _76
REMARK   36  A    between atoms: _76  and  _77
REMARK   37  A    between atoms: _80  and  _82
REMARK   38  A    between atoms: _82  and  _83
REMARK   39  A    between atoms: _82  and  _85
REMARK   40  A    between atoms: _85  and  _86
REMARK   41  A    between atoms: _86  and  _87
REMARK   42  A    between atoms: _90  and  _92
REMARK   43  A    between atoms: _92  and  _93
REMARK   44  A    between atoms: _92  and  _95
REMARK   45  A    between atoms: _95  and  _96
REMARK   46  A    between atoms: _98  and  _100
REMARK   47  A    between atoms: _100  and  _101
REMARK   48  A    between atoms: _100  and  _103
REMARK   49  A    between atoms: _103  and  _104
REMARK   50  A    between atoms: _109  and  _111
REMARK   51  A    between atoms: _111  and  _112
REMARK   52  A    between atoms: _111  and  _114
REMARK   53  A    between atoms: _114  and  _115
REMARK   54  A    between atoms: _115  and  _116
REMARK   55  A    between atoms: _119  and  _121
REMARK   56  A    between atoms: _121  and  _122
REMARK   57  A    between atoms: _121  and  _124
REMARK   58  A    between atoms: _124  and  _125
REMARK   59  A    between atoms: _127  and  _129
REMARK   60  A    between atoms: _129  and  _130
REMARK   61  A    between atoms: _129  and  _132
REMARK   62  A    between atoms: _132  and  _133
REMARK   63  A    between atoms: _143  and  _145
REMARK   64  A    between atoms: _145  and  _146
REMARK   65  A    between atoms: _145  and  _148
REMARK   66  A    between atoms: _148  and  _149
REMARK   67  A    between atoms: _154  and  _156
REMARK   68  A    between atoms: _156  and  _157
REMARK   69  A    between atoms: _159  and  _161
REMARK   70  A    between atoms: _161  and  _162
REMARK   71  A    between atoms: _161  and  _164
REMARK   72  A    between atoms: _164  and  _165
REMARK   73  A    between atoms: _165  and  _166
REMARK   74  A    between atoms: _168  and  _170
REMARK   75  A    between atoms: _170  and  _171
REMARK   76  A    between atoms: _170  and  _173
REMARK   77  A    between atoms: _173  and  _174
REMARK   78  A    between atoms: _177  and  _179
REMARK   79  A    between atoms: _179  and  _180
REMARK   80  A    between atoms: _183  and  _185
REMARK   81  A    between atoms: _185  and  _186
REMARK   82  A    between atoms: _185  and  _188
REMARK   83  A    between atoms: _188  and  _189
REMARK   84  A    between atoms: _192  and  _194
REMARK   85  A    between atoms: _194  and  _195
REMARK   86  A    between atoms: _194  and  _197
REMARK   87  A    between atoms: _197  and  _198
REMARK   88  A    between atoms: _200  and  _202
REMARK   89  A    between atoms: _202  and  _203
REMARK   90  A    between atoms: _202  and  _205
REMARK   91  A    between atoms: _205  and  _206
REMARK   92  A    between atoms: _209  and  _211
REMARK   93  A    between atoms: _211  and  _212
REMARK   94  A    between atoms: _215  and  _217
REMARK   95  A    between atoms: _217  and  _218
REMARK   96  A    between atoms: _217  and  _220
REMARK   97  A    between atoms: _220  and  _221
REMARK   98  A    between atoms: _221  and  _222
REMARK   99  A    between atoms: _226  and  _227
REMARK  100  A    between atoms: _232  and  _234
REMARK  101  A    between atoms: _234  and  _235
REMARK  102  A    between atoms: _234  and  _237
REMARK  103  A    between atoms: _237  and  _238
REMARK  104  A    between atoms: _241  and  _243
REMARK  105  A    between atoms: _243  and  _244
REMARK  106  A    between atoms: _243  and  _246
REMARK  107  A    between atoms: _246  and  _247
REMARK  108  A    between atoms: _250  and  _252
REMARK  109  A    between atoms: _252  and  _253
REMARK  110  A    between atoms: _252  and  _255
REMARK  111  A    between atoms: _255  and  _256
REMARK  112  A    between atoms: _258  and  _260
REMARK  113  A    between atoms: _260  and  _261
REMARK  114  A    between atoms: _260  and  _263
REMARK  115  A    between atoms: _263  and  _264
REMARK  116  A    between atoms: _266  and  _268
REMARK  117  A    between atoms: _268  and  _269
REMARK  118  A    between atoms: _271  and  _273
REMARK  119  A    between atoms: _273  and  _274
REMARK  120  A    between atoms: _276  and  _278
REMARK  121  A    between atoms: _278  and  _279
REMARK  122  A    between atoms: _278  and  _281
REMARK  123  A    between atoms: _281  and  _282
REMARK  124  A    between atoms: _285  and  _287
REMARK  125  A    between atoms: _287  and  _288
REMARK  126  A    between atoms: _287  and  _290
REMARK  127  A    between atoms: _290  and  _291
REMARK  128  A    between atoms: _291  and  _292
REMARK  129  A    between atoms: _295  and  _297
REMARK  130  A    between atoms: _297  and  _298
REMARK  131  A    between atoms: _301  and  _303
REMARK  132  A    between atoms: _303  and  _304
REMARK  133  A    between atoms: _303  and  _306
REMARK  134  A    between atoms: _306  and  _307
REMARK  135  A    between atoms: _307  and  _308
REMARK  136  A    between atoms: _313  and  _315
REMARK  137  A    between atoms: _315  and  _316
REMARK  138  A    between atoms: _315  and  _318
REMARK  139  A    between atoms: _318  and  _319
REMARK  140  A    between atoms: _322  and  _324
REMARK  141  A    between atoms: _324  and  _325
REMARK  142  A    between atoms: _327  and  _329
REMARK  143  A    between atoms: _329  and  _330
REMARK  144  A    between atoms: _329  and  _332
REMARK  145  A    between atoms: _332  and  _333
REMARK  146  A    between atoms: _336  and  _338
REMARK  147  A    between atoms: _338  and  _339
REMARK  148  A    between atoms: _338  and  _341
REMARK  149  A    between atoms: _341  and  _342
REMARK  150  A    between atoms: _345  and  _347
REMARK  151  A    between atoms: _347  and  _348
REMARK  152  A    between atoms: _347  and  _350
REMARK  153  A    between atoms: _350  and  _351
REMARK  154  A    between atoms: _353  and  _355
REMARK  155  A    between atoms: _355  and  _356
REMARK  156  A    between atoms: _355  and  _358
REMARK  157  A    between atoms: _358  and  _359
REMARK  158  A    between atoms: _359  and  _360
REMARK  159  A    between atoms: _360  and  _361
REMARK  160  A    between atoms: _361  and  _362
REMARK  161  A    between atoms: _367  and  _368
REMARK  162  A    between atoms: _373  and  _375
REMARK  163  A    between atoms: _375  and  _376
REMARK  164  A    between atoms: _375  and  _378
REMARK  165  A    between atoms: _378  and  _379
REMARK  166  A    between atoms: _382  and  _384
REMARK  167  A    between atoms: _384  and  _385
REMARK  168  A    between atoms: _388  and  _390
REMARK  169  A    between atoms: _390  and  _391
REMARK  170  A    between atoms: _390  and  _393
REMARK  171  A    between atoms: _393  and  _394
REMARK  172  A    between atoms: _399  and  _401
REMARK  173  A    between atoms: _401  and  _402
REMARK  174  A    between atoms: _401  and  _404
REMARK  175  A    between atoms: _407  and  _409
REMARK  176  A    between atoms: _409  and  _410
REMARK  177  A    between atoms: _409  and  _412
REMARK  178  A    between atoms: _412  and  _413
REMARK  179  A    between atoms: _413  and  _414
REMARK  180  A    between atoms: _414  and  _415
REMARK  181  A    between atoms: _424  and  _426
REMARK  182  A    between atoms: _426  and  _427
REMARK  183  A    between atoms: _426  and  _429
REMARK  184  A    between atoms: _429  and  _430
REMARK  185  A    between atoms: _435  and  _437
REMARK  186  A    between atoms: _437  and  _438
REMARK  187  A    between atoms: _437  and  _440
REMARK  188  A    between atoms: _440  and  _441
REMARK  189  A    between atoms: _447  and  _449
REMARK  190  A    between atoms: _449  and  _450
REMARK  191  A    between atoms: _449  and  _452
REMARK  192  A    between atoms: _452  and  _453
REMARK  193  A    between atoms: _455  and  _457
REMARK  194  A    between atoms: _457  and  _458
REMARK  195  A    between atoms: _457  and  _460
REMARK  196  A    between atoms: _460  and  _461
REMARK  197  A    between atoms: _461  and  _462
REMARK  198  A    between atoms: _465  and  _467
REMARK  199  A    between atoms: _467  and  _468
REMARK  200  A    between atoms: _467  and  _470
REMARK  201  A    between atoms: _470  and  _471
REMARK  202  A    between atoms: _473  and  _475
REMARK  203  A    between atoms: _475  and  _476
REMARK  204  A    between atoms: _475  and  _478
REMARK  205  A    between atoms: _478  and  _479
REMARK  206  A    between atoms: _479  and  _480
REMARK  207  A    between atoms: _483  and  _485
REMARK  208  A    between atoms: _485  and  _486
REMARK  209  A    between atoms: _485  and  _488
REMARK  210  A    between atoms: _488  and  _489
REMARK  211  A    between atoms: _492  and  _494
REMARK  212  A    between atoms: _494  and  _495
REMARK  213  A    between atoms: _494  and  _497
REMARK  214  A    between atoms: _497  and  _498
REMARK  215  A    between atoms: _504  and  _506
REMARK  216  A    between atoms: _506  and  _507
REMARK  217  A    between atoms: _506  and  _509
REMARK  218  A    between atoms: _509  and  _510
REMARK  219  A    between atoms: _515  and  _516
REMARK  220  A    between atoms: _518  and  _520
REMARK  221  A    between atoms: _520  and  _521
REMARK  222  A    between atoms: _520  and  _523
REMARK  223  A    between atoms: _523  and  _524
REMARK  224  A    between atoms: _527  and  _529
REMARK  225  A    between atoms: _529  and  _530
REMARK  226  A    between atoms: _529  and  _532
REMARK  227  A    between atoms: _532  and  _533
REMARK  228  A    between atoms: _536  and  _538
REMARK  229  A    between atoms: _538  and  _539
REMARK  230  A    between atoms: _538  and  _541
REMARK  231  A    between atoms: _541  and  _542
REMARK  232  A    between atoms: _547  and  _549
REMARK  233  A    between atoms: _549  and  _550
REMARK  234  A    between atoms: _549  and  _552
REMARK                            x       y       z     vdW  Elec       q    Type
REMARK                         _______ _______ _______ _____ _____    ______ ____
ROOT
ATOM      1  O   HOH     1      20.239  44.537  17.541  0.00  0.00    +0.000 OA
ENDROOT
TORSDOF 0
REMARK  Name = ../refined-set-2016/1m0n/1m0n_pocket.pdb
REMARK  234 active torsions:
REMARK  status: ('A' for Active; 'I' for Inactive)
REMARK    1  A    between atoms: _1  and  _3
REMARK    2  A    between atoms: _3  and  _4
REMARK    3  A    between atoms: _3  and  _6
REMARK    4  A    between atoms: _6  and  _7
REMARK    5  A    between atoms: _10  and  _12
REMARK    6  A    between atoms: _12  and  _13
REMARK    7  A    between atoms: _12  and  _15
REMARK    8  A    between atoms: _15  and  _16
REMARK    9  A    between atoms: _18  and  _20
REMARK   10  A    between atoms: _20  and  _21
REMARK   11  A    between atoms: _23  and  _25
REMARK   12  A    between atoms: _25  and  _26
REMARK   13  A    between atoms: _25  and  _28
REMARK   14  A    between atoms: _28  and  _29
REMARK   15  A    between atoms: _29  and  _30
REMARK   16  A    between atoms: _35  and  _37
REMARK   17  A    between atoms: _37  and  _38
REMARK   18  A    between atoms: _37  and  _40
REMARK   19  A    between atoms: _40  and  _41
REMARK   20  A    between atoms: _41  and  _42
REMARK   21  A    between atoms: _44  and  _46
REMARK   22  A    between atoms: _46  and  _47
REMARK   23  A    between atoms: _46  and  _49
REMARK   24  A    between atoms: _49  and  _50
REMARK   25  A    between atoms: _52  and  _54
REMARK   26  A    between atoms: _54  and  _55
REMARK   27  A    between atoms: _54  and  _57
REMARK   28  A    between atoms: _57  and  _58
REMARK   29  A    between atoms: _60  and  _62
REMARK   30  A    between atoms: _62  and  _63
REMARK   31  A    between atoms: _62  and  _65
REMARK   32  A    between atoms: _65  and  _66
REMARK   33  A    between atoms: _69  and  _71
REMARK   34  A    between atoms: _71  and  _72
REMARK   35  A    between atoms: _74  and  _76
REMARK   36  A    between atoms: _76  and  _77
REMARK   37  A    between atoms: _80  and  _82
REMARK   38  A    between atoms: _82  and  _83
REMARK   39  A    between atoms: _82  and  _85
REMARK   40  A    between atoms: _85  and  _86
REMARK   41  A    between atoms: _86  and  _87
REMARK   42  A    between atoms: _90  and  _92
REMARK   43  A    between atoms: _92  and  _93
REMARK   44  A    between atoms: _92  and  _95
REMARK   45  A    between atoms: _95  and  _96
REMARK   46  A    between atoms: _98  and  _100
REMARK   47  A    between atoms: _100  and  _101
REMARK   48  A    between atoms: _100  and  _103
REMARK   49  A    between atoms: _103  and  _104
REMARK   50  A    between atoms: _109  and  _111
REMARK   51  A    between atoms: _111  and  _112
REMARK   52  A    between atoms: _111  and  _114
REMARK   53  A    between atoms: _114  and  _115
REMARK   54  A    between atoms: _115  and  _116
REMARK   55  A    between atoms: _119  and  _121
REMARK   56  A    between atoms: _121  and  _122
REMARK   57  A    between atoms: _121  and  _124
REMARK   58  A    between atoms: _124  and  _125
REMARK   59  A    between atoms: _127  and  _129
REMARK   60  A    between atoms: _129  and  _130
REMARK   61  A    between atoms: _129  and  _132
REMARK   62  A    between atoms: _132  and  _133
REMARK   63  A    between atoms: _143  and  _145
REMARK   64  A    between atoms: _145  and  _146
REMARK   65  A    between atoms: _145  and  _148
REMARK   66  A    between atoms: _148  and  _149
REMARK   67  A    between atoms: _154  and  _156
REMARK   68  A    between atoms: _156  and  _157
REMARK   69  A    between atoms: _159  and  _161
REMARK   70  A    between atoms: _161  and  _162
REMARK   71  A    between atoms: _161  and  _164
REMARK   72  A    between atoms: _164  and  _165
REMARK   73  A    between atoms: _165  and  _166
REMARK   74  A    between atoms: _168  and  _170
REMARK   75  A    between atoms: _170  and  _171
REMARK   76  A    between atoms: _170  and  _173
REMARK   77  A    between atoms: _173  and  _174
REMARK   78  A    between atoms: _177  and  _179
REMARK   79  A    between atoms: _179  and  _180
REMARK   80  A    between atoms: _183  and  _185
REMARK   81  A    between atoms: _185  and  _186
REMARK   82  A    between atoms: _185  and  _188
REMARK   83  A    between atoms: _188  and  _189
REMARK   84  A    between atoms: _192  and  _194
REMARK   85  A    between atoms: _194  and  _195
REMARK   86  A    between atoms: _194  and  _197
REMARK   87  A    between atoms: _197  and  _198
REMARK   88  A    between atoms: _200  and  _202
REMARK   89  A    between atoms: _202  and  _203
REMARK   90  A    between atoms: _202  and  _205
REMARK   91  A    between atoms: _205  and  _206
REMARK   92  A    between atoms: _209  and  _211
REMARK   93  A    between atoms: _211  and  _212
REMARK   94  A    between atoms: _215  and  _217
REMARK   95  A    between atoms: _217  and  _218
REMARK   96  A    between atoms: _217  and  _220
REMARK   97  A    between atoms: _220  and  _221
REMARK   98  A    between atoms: _221  and  _222
REMARK   99  A    between atoms: _226  and  _227
REMARK  100  A    between atoms: _232  and  _234
REMARK  101  A    between atoms: _234  and  _235
REMARK  102  A    between atoms: _234  and  _237
REMARK  103  A    between atoms: _237  and  _238
REMARK  104  A    between atoms: _241  and  _243
REMARK  105  A    between atoms: _243  and  _244
REMARK  106  A    between atoms: _243  and  _246
REMARK  107  A    between atoms: _246  and  _247
REMARK  108  A    between atoms: _250  and  _252
REMARK  109  A    between atoms: _252  and  _253
REMARK  110  A    between atoms: _252  and  _255
REMARK  111  A    between atoms: _255  and  _256
REMARK  112  A    between atoms: _258  and  _260
REMARK  113  A    between atoms: _260  and  _261
REMARK  114  A    between atoms: _260  and  _263
REMARK  115  A    between atoms: _263  and  _264
REMARK  116  A    between atoms: _266  and  _268
REMARK  117  A    between atoms: _268  and  _269
REMARK  118  A    between atoms: _271  and  _273
REMARK  119  A    between atoms: _273  and  _274
REMARK  120  A    between atoms: _276  and  _278
REMARK  121  A    between atoms: _278  and  _279
REMARK  122  A    between atoms: _278  and  _281
REMARK  123  A    between atoms: _281  and  _282
REMARK  124  A    between atoms: _285  and  _287
REMARK  125  A    between atoms: _287  and  _288
REMARK  126  A    between atoms: _287  and  _290
REMARK  127  A    between atoms: _290  and  _291
REMARK  128  A    between atoms: _291  and  _292
REMARK  129  A    between atoms: _295  and  _297
REMARK  130  A    between atoms: _297  and  _298
REMARK  131  A    between atoms: _301  and  _303
REMARK  132  A    between atoms: _303  and  _304
REMARK  133  A    between atoms: _303  and  _306
REMARK  134  A    between atoms: _306  and  _307
REMARK  135  A    between atoms: _307  and  _308
REMARK  136  A    between atoms: _313  and  _315
REMARK  137  A    between atoms: _315  and  _316
REMARK  138  A    between atoms: _315  and  _318
REMARK  139  A    between atoms: _318  and  _319
REMARK  140  A    between atoms: _322  and  _324
REMARK  141  A    between atoms: _324  and  _325
REMARK  142  A    between atoms: _327  and  _329
REMARK  143  A    between atoms: _329  and  _330
REMARK  144  A    between atoms: _329  and  _332
REMARK  145  A    between atoms: _332  and  _333
REMARK  146  A    between atoms: _336  and  _338
REMARK  147  A    between atoms: _338  and  _339
REMARK  148  A    between atoms: _338  and  _341
REMARK  149  A    between atoms: _341  and  _342
REMARK  150  A    between atoms: _345  and  _347
REMARK  151  A    between atoms: _347  and  _348
REMARK  152  A    between atoms: _347  and  _350
REMARK  153  A    between atoms: _350  and  _351
REMARK  154  A    between atoms: _353  and  _355
REMARK  155  A    between atoms: _355  and  _356
REMARK  156  A    between atoms: _355  and  _358
REMARK  157  A    between atoms: _358  and  _359
REMARK  158  A    between atoms: _359  and  _360
REMARK  159  A    between atoms: _360  and  _361
REMARK  160  A    between atoms: _361  and  _362
REMARK  161  A    between atoms: _367  and  _368
REMARK  162  A    between atoms: _373  and  _375
REMARK  163  A    between atoms: _375  and  _376
REMARK  164  A    between atoms: _375  and  _378
REMARK  165  A    between atoms: _378  and  _379
REMARK  166  A    between atoms: _382  and  _384
REMARK  167  A    between atoms: _384  and  _385
REMARK  168  A    between atoms: _388  and  _390
REMARK  169  A    between atoms: _390  and  _391
REMARK  170  A    between atoms: _390  and  _393
REMARK  171  A    between atoms: _393  and  _394
REMARK  172  A    between atoms: _399  and  _401
REMARK  173  A    between atoms: _401  and  _402
REMARK  174  A    between atoms: _401  and  _404
REMARK  175  A    between atoms: _407  and  _409
REMARK  176  A    between atoms: _409  and  _410
REMARK  177  A    between atoms: _409  and  _412
REMARK  178  A    between atoms: _412  and  _413
REMARK  179  A    between atoms: _413  and  _414
REMARK  180  A    between atoms: _414  and  _415
REMARK  181  A    between atoms: _424  and  _426
REMARK  182  A    between atoms: _426  and  _427
REMARK  183  A    between atoms: _426  and  _429
REMARK  184  A    between atoms: _429  and  _430
REMARK  185  A    between atoms: _435  and  _437
REMARK  186  A    between atoms: _437  and  _438
REMARK  187  A    between atoms: _437  and  _440
REMARK  188  A    between atoms: _440  and  _441
REMARK  189  A    between atoms: _447  and  _449
REMARK  190  A    between atoms: _449  and  _450
REMARK  191  A    between atoms: _449  and  _452
REMARK  192  A    between atoms: _452  and  _453
REMARK  193  A    between atoms: _455  and  _457
REMARK  194  A    between atoms: _457  and  _458
REMARK  195  A    between atoms: _457  and  _460
REMARK  196  A    between atoms: _460  and  _461
REMARK  197  A    between atoms: _461  and  _462
REMARK  198  A    between atoms: _465  and  _467
REMARK  199  A    between atoms: _467  and  _468
REMARK  200  A    between atoms: _467  and  _470
REMARK  201  A    between atoms: _470  and  _471
REMARK  202  A    between atoms: _473  and  _475
REMARK  203  A    between atoms: _475  and  _476
REMARK  204  A    between atoms: _475  and  _478
REMARK  205  A    between atoms: _478  and  _479
REMARK  206  A    between atoms: _479  and  _480
REMARK  207  A    between atoms: _483  and  _485
REMARK  208  A    between atoms: _485  and  _486
REMARK  209  A    between atoms: _485  and  _488
REMARK  210  A    between atoms: _488  and  _489
REMARK  211  A    between atoms: _492  and  _494
REMARK  212  A    between atoms: _494  and  _495
REMARK  213  A    between atoms: _494  and  _497
REMARK  214  A    between atoms: _497  and  _498
REMARK  215  A    between atoms: _504  and  _506
REMARK  216  A    between atoms: _506  and  _507
REMARK  217  A    between atoms: _506  and  _509
REMARK  218  A    between atoms: _509  and  _510
REMARK  219  A    between atoms: _515  and  _516
REMARK  220  A    between atoms: _518  and  _520
REMARK  221  A    between atoms: _520  and  _521
REMARK  222  A    between atoms: _520  and  _523
REMARK  223  A    between atoms: _523  and  _524
REMARK  224  A    between atoms: _527  and  _529
REMARK  225  A    between atoms: _529  and  _530
REMARK  226  A    between atoms: _529  and  _532
REMARK  227  A    between atoms: _532  and  _533
REMARK  228  A    between atoms: _536  and  _538
REMARK  229  A    between atoms: _538  and  _539
REMARK  230  A    between atoms: _538  and  _541
REMARK  231  A    between atoms: _541  and  _542
REMARK  232  A    between atoms: _547  and  _549
REMARK  233  A    between atoms: _549  and  _550
REMARK  234  A    between atoms: _549  and  _552
REMARK                            x       y       z     vdW  Elec       q    Type
REMARK                         _______ _______ _______ _____ _____    ______ ____
ROOT
ATOM      1  O   HOH     1      23.747  47.296  16.353  0.00  0.00    +0.000 OA
ENDROOT
TORSDOF 0
REMARK  Name = ../refined-set-2016/1m0n/1m0n_pocket.pdb
REMARK  234 active torsions:
REMARK  status: ('A' for Active; 'I' for Inactive)
REMARK    1  A    between atoms: _1  and  _3
REMARK    2  A    between atoms: _3  and  _4
REMARK    3  A    between atoms: _3  and  _6
REMARK    4  A    between atoms: _6  and  _7
REMARK    5  A    between atoms: _10  and  _12
REMARK    6  A    between atoms: _12  and  _13
REMARK    7  A    between atoms: _12  and  _15
REMARK    8  A    between atoms: _15  and  _16
REMARK    9  A    between atoms: _18  and  _20
REMARK   10  A    between atoms: _20  and  _21
REMARK   11  A    between atoms: _23  and  _25
REMARK   12  A    between atoms: _25  and  _26
REMARK   13  A    between atoms: _25  and  _28
REMARK   14  A    between atoms: _28  and  _29
REMARK   15  A    between atoms: _29  and  _30
REMARK   16  A    between atoms: _35  and  _37
REMARK   17  A    between atoms: _37  and  _38
REMARK   18  A    between atoms: _37  and  _40
REMARK   19  A    between atoms: _40  and  _41
REMARK   20  A    between atoms: _41  and  _42
REMARK   21  A    between atoms: _44  and  _46
REMARK   22  A    between atoms: _46  and  _47
REMARK   23  A    between atoms: _46  and  _49
REMARK   24  A    between atoms: _49  and  _50
REMARK   25  A    between atoms: _52  and  _54
REMARK   26  A    between atoms: _54  and  _55
REMARK   27  A    between atoms: _54  and  _57
REMARK   28  A    between atoms: _57  and  _58
REMARK   29  A    between atoms: _60  and  _62
REMARK   30  A    between atoms: _62  and  _63
REMARK   31  A    between atoms: _62  and  _65
REMARK   32  A    between atoms: _65  and  _66
REMARK   33  A    between atoms: _69  and  _71
REMARK   34  A    between atoms: _71  and  _72
REMARK   35  A    between atoms: _74  and  _76
REMARK   36  A    between atoms: _76  and  _77
REMARK   37  A    between atoms: _80  and  _82
REMARK   38  A    between atoms: _82  and  _83
REMARK   39  A    between atoms: _82  and  _85
REMARK   40  A    between atoms: _85  and  _86
REMARK   41  A    between atoms: _86  and  _87
REMARK   42  A    between atoms: _90  and  _92
REMARK   43  A    between atoms: _92  and  _93
REMARK   44  A    between atoms: _92  and  _95
REMARK   45  A    between atoms: _95  and  _96
REMARK   46  A    between atoms: _98  and  _100
REMARK   47  A    between atoms: _100  and  _101
REMARK   48  A    between atoms: _100  and  _103
REMARK   49  A    between atoms: _103  and  _104
REMARK   50  A    between atoms: _109  and  _111
REMARK   51  A    between atoms: _111  and  _112
REMARK   52  A    between atoms: _111  and  _114
REMARK   53  A    between atoms: _114  and  _115
REMARK   54  A    between atoms: _115  and  _116
REMARK   55  A    between atoms: _119  and  _121
REMARK   56  A    between atoms: _121  and  _122
REMARK   57  A    between atoms: _121  and  _124
REMARK   58  A    between atoms: _124  and  _125
REMARK   59  A    between atoms: _127  and  _129
REMARK   60  A    between atoms: _129  and  _130
REMARK   61  A    between atoms: _129  and  _132
REMARK   62  A    between atoms: _132  and  _133
REMARK   63  A    between atoms: _143  and  _145
REMARK   64  A    between atoms: _145  and  _146
REMARK   65  A    between atoms: _145  and  _148
REMARK   66  A    between atoms: _148  and  _149
REMARK   67  A    between atoms: _154  and  _156
REMARK   68  A    between atoms: _156  and  _157
REMARK   69  A    between atoms: _159  and  _161
REMARK   70  A    between atoms: _161  and  _162
REMARK   71  A    between atoms: _161  and  _164
REMARK   72  A    between atoms: _164  and  _165
REMARK   73  A    between atoms: _165  and  _166
REMARK   74  A    between atoms: _168  and  _170
REMARK   75  A    between atoms: _170  and  _171
REMARK   76  A    between atoms: _170  and  _173
REMARK   77  A    between atoms: _173  and  _174
REMARK   78  A    between atoms: _177  and  _179
REMARK   79  A    between atoms: _179  and  _180
REMARK   80  A    between atoms: _183  and  _185
REMARK   81  A    between atoms: _185  and  _186
REMARK   82  A    between atoms: _185  and  _188
REMARK   83  A    between atoms: _188  and  _189
REMARK   84  A    between atoms: _192  and  _194
REMARK   85  A    between atoms: _194  and  _195
REMARK   86  A    between atoms: _194  and  _197
REMARK   87  A    between atoms: _197  and  _198
REMARK   88  A    between atoms: _200  and  _202
REMARK   89  A    between atoms: _202  and  _203
REMARK   90  A    between atoms: _202  and  _205
REMARK   91  A    between atoms: _205  and  _206
REMARK   92  A    between atoms: _209  and  _211
REMARK   93  A    between atoms: _211  and  _212
REMARK   94  A    between atoms: _215  and  _217
REMARK   95  A    between atoms: _217  and  _218
REMARK   96  A    between atoms: _217  and  _220
REMARK   97  A    between atoms: _220  and  _221
REMARK   98  A    between atoms: _221  and  _222
REMARK   99  A    between atoms: _226  and  _227
REMARK  100  A    between atoms: _232  and  _234
REMARK  101  A    between atoms: _234  and  _235
REMARK  102  A    between atoms: _234  and  _237
REMARK  103  A    between atoms: _237  and  _238
REMARK  104  A    between atoms: _241  and  _243
REMARK  105  A    between atoms: _243  and  _244
REMARK  106  A    between atoms: _243  and  _246
REMARK  107  A    between atoms: _246  and  _247
REMARK  108  A    between atoms: _250  and  _252
REMARK  109  A    between atoms: _252  and  _253
REMARK  110  A    between atoms: _252  and  _255
REMARK  111  A    between atoms: _255  and  _256
REMARK  112  A    between atoms: _258  and  _260
REMARK  113  A    between atoms: _260  and  _261
REMARK  114  A    between atoms: _260  and  _263
REMARK  115  A    between atoms: _263  and  _264
REMARK  116  A    between atoms: _266  and  _268
REMARK  117  A    between atoms: _268  and  _269
REMARK  118  A    between atoms: _271  and  _273
REMARK  119  A    between atoms: _273  and  _274
REMARK  120  A    between atoms: _276  and  _278
REMARK  121  A    between atoms: _278  and  _279
REMARK  122  A    between atoms: _278  and  _281
REMARK  123  A    between atoms: _281  and  _282
REMARK  124  A    between atoms: _285  and  _287
REMARK  125  A    between atoms: _287  and  _288
REMARK  126  A    between atoms: _287  and  _290
REMARK  127  A    between atoms: _290  and  _291
REMARK  128  A    between atoms: _291  and  _292
REMARK  129  A    between atoms: _295  and  _297
REMARK  130  A    between atoms: _297  and  _298
REMARK  131  A    between atoms: _301  and  _303
REMARK  132  A    between atoms: _303  and  _304
REMARK  133  A    between atoms: _303  and  _306
REMARK  134  A    between atoms: _306  and  _307
REMARK  135  A    between atoms: _307  and  _308
REMARK  136  A    between atoms: _313  and  _315
REMARK  137  A    between atoms: _315  and  _316
REMARK  138  A    between atoms: _315  and  _318
REMARK  139  A    between atoms: _318  and  _319
REMARK  140  A    between atoms: _322  and  _324
REMARK  141  A    between atoms: _324  and  _325
REMARK  142  A    between atoms: _327  and  _329
REMARK  143  A    between atoms: _329  and  _330
REMARK  144  A    between atoms: _329  and  _332
REMARK  145  A    between atoms: _332  and  _333
REMARK  146  A    between atoms: _336  and  _338
REMARK  147  A    between atoms: _338  and  _339
REMARK  148  A    between atoms: _338  and  _341
REMARK  149  A    between atoms: _341  and  _342
REMARK  150  A    between atoms: _345  and  _347
REMARK  151  A    between atoms: _347  and  _348
REMARK  152  A    between atoms: _347  and  _350
REMARK  153  A    between atoms: _350  and  _351
REMARK  154  A    between atoms: _353  and  _355
REMARK  155  A    between atoms: _355  and  _356
REMARK  156  A    between atoms: _355  and  _358
REMARK  157  A    between atoms: _358  and  _359
REMARK  158  A    between atoms: _359  and  _360
REMARK  159  A    between atoms: _360  and  _361
REMARK  160  A    between atoms: _361  and  _362
REMARK  161  A    between atoms: _367  and  _368
REMARK  162  A    between atoms: _373  and  _375
REMARK  163  A    between atoms: _375  and  _376
REMARK  164  A    between atoms: _375  and  _378
REMARK  165  A    between atoms: _378  and  _379
REMARK  166  A    between atoms: _382  and  _384
REMARK  167  A    between atoms: _384  and  _385
REMARK  168  A    between atoms: _388  and  _390
REMARK  169  A    between atoms: _390  and  _391
REMARK  170  A    between atoms: _390  and  _393
REMARK  171  A    between atoms: _393  and  _394
REMARK  172  A    between atoms: _399  and  _401
REMARK  173  A    between atoms: _401  and  _402
REMARK  174  A    between atoms: _401  and  _404
REMARK  175  A    between atoms: _407  and  _409
REMARK  176  A    between atoms: _409  and  _410
REMARK  177  A    between atoms: _409  and  _412
REMARK  178  A    between atoms: _412  and  _413
REMARK  179  A    between atoms: _413  and  _414
REMARK  180  A    between atoms: _414  and  _415
REMARK  181  A    between atoms: _424  and  _426
REMARK  182  A    between atoms: _426  and  _427
REMARK  183  A    between atoms: _426  and  _429
REMARK  184  A    between atoms: _429  and  _430
REMARK  185  A    between atoms: _435  and  _437
REMARK  186  A    between atoms: _437  and  _438
REMARK  187  A    between atoms: _437  and  _440
REMARK  188  A    between atoms: _440  and  _441
REMARK  189  A    between atoms: _447  and  _449
REMARK  190  A    between atoms: _449  and  _450
REMARK  191  A    between atoms: _449  and  _452
REMARK  192  A    between atoms: _452  and  _453
REMARK  193  A    between atoms: _455  and  _457
REMARK  194  A    between atoms: _457  and  _458
REMARK  195  A    between atoms: _457  and  _460
REMARK  196  A    between atoms: _460  and  _461
REMARK  197  A    between atoms: _461  and  _462
REMARK  198  A    between atoms: _465  and  _467
REMARK  199  A    between atoms: _467  and  _468
REMARK  200  A    between atoms: _467  and  _470
REMARK  201  A    between atoms: _470  and  _471
REMARK  202  A    between atoms: _473  and  _475
REMARK  203  A    between atoms: _475  and  _476
REMARK  204  A    between atoms: _475  and  _478
REMARK  205  A    between atoms: _478  and  _479
REMARK  206  A    between atoms: _479  and  _480
REMARK  207  A    between atoms: _483  and  _485
REMARK  208  A    between atoms: _485  and  _486
REMARK  209  A    between atoms: _485  and  _488
REMARK  210  A    between atoms: _488  and  _489
REMARK  211  A    between atoms: _492  and  _494
REMARK  212  A    between atoms: _494  and  _495
REMARK  213  A    between atoms: _494  and  _497
REMARK  214  A    between atoms: _497  and  _498
REMARK  215  A    between atoms: _504  and  _506
REMARK  216  A    between atoms: _506  and  _507
REMARK  217  A    between atoms: _506  and  _509
REMARK  218  A    between atoms: _509  and  _510
REMARK  219  A    between atoms: _515  and  _516
REMARK  220  A    between atoms: _518  and  _520
REMARK  221  A    between atoms: _520  and  _521
REMARK  222  A    between atoms: _520  and  _523
REMARK  223  A    between atoms: _523  and  _524
REMARK  224  A    between atoms: _527  and  _529
REMARK  225  A    between atoms: _529  and  _530
REMARK  226  A    between atoms: _529  and  _532
REMARK  227  A    between atoms: _532  and  _533
REMARK  228  A    between atoms: _536  and  _538
REMARK  229  A    between atoms: _538  and  _539
REMARK  230  A    between atoms: _538  and  _541
REMARK  231  A    between atoms: _541  and  _542
REMARK  232  A    between atoms: _547  and  _549
REMARK  233  A    between atoms: _549  and  _550
REMARK  234  A    between atoms: _549  and  _552
REMARK                            x       y       z     vdW  Elec       q    Type
REMARK                         _______ _______ _______ _____ _____    ______ ____
ROOT
ATOM      1  O   HOH     1      20.295  51.057  19.165  0.00  0.00    +0.000 OA
ENDROOT
TORSDOF 0
