REMARK  Name = ../refined-set-2016/4gid/4gid_pocket.pdb
REMARK  300 active torsions:
REMARK  status: ('A' for Active; 'I' for Inactive)
REMARK    1  A    between atoms: _1  and  _3
REMARK    2  A    between atoms: _3  and  _4
REMARK    3  A    between atoms: _6  and  _8
REMARK    4  A    between atoms: _8  and  _9
REMARK    5  A    between atoms: _8  and  _11
REMARK    6  A    between atoms: _11  and  _12
REMARK    7  A    between atoms: _12  and  _13
REMARK    8  A    between atoms: _13  and  _14
REMARK    9  A    between atoms: _14  and  _15
REMARK   10  A    between atoms: _19  and  _21
REMARK   11  A    between atoms: _21  and  _22
REMARK   12  A    between atoms: _21  and  _24
REMARK   13  A    between atoms: _24  and  _25
REMARK   14  A    between atoms: _27  and  _29
REMARK   15  A    between atoms: _29  and  _30
REMARK   16  A    between atoms: _32  and  _34
REMARK   17  A    between atoms: _34  and  _35
REMARK   18  A    between atoms: _34  and  _37
REMARK   19  A    between atoms: _37  and  _38
REMARK   20  A    between atoms: _38  and  _39
REMARK   21  A    between atoms: _44  and  _46
REMARK   22  A    between atoms: _46  and  _47
REMARK   23  A    between atoms: _49  and  _51
REMARK   24  A    between atoms: _51  and  _52
REMARK   25  A    between atoms: _51  and  _54
REMARK   26  A    between atoms: _54  and  _55
REMARK   27  A    between atoms: _60  and  _61
REMARK   28  A    between atoms: _63  and  _65
REMARK   29  A    between atoms: _65  and  _66
REMARK   30  A    between atoms: _65  and  _68
REMARK   31  A    between atoms: _68  and  _69
REMARK   32  A    between atoms: _74  and  _75
REMARK   33  A    between atoms: _77  and  _79
REMARK   34  A    between atoms: _79  and  _80
REMARK   35  A    between atoms: _79  and  _82
REMARK   36  A    between atoms: _82  and  _83
REMARK   37  A    between atoms: _86  and  _88
REMARK   38  A    between atoms: _88  and  _89
REMARK   39  A    between atoms: _88  and  _91
REMARK   40  A    between atoms: _94  and  _96
REMARK   41  A    between atoms: _96  and  _97
REMARK   42  A    between atoms: _96  and  _99
REMARK   43  A    between atoms: _99  and  _100
REMARK   44  A    between atoms: _103  and  _105
REMARK   45  A    between atoms: _105  and  _106
REMARK   46  A    between atoms: _105  and  _108
REMARK   47  A    between atoms: _108  and  _109
REMARK   48  A    between atoms: _112  and  _114
REMARK   49  A    between atoms: _114  and  _115
REMARK   50  A    between atoms: _117  and  _119
REMARK   51  A    between atoms: _119  and  _120
REMARK   52  A    between atoms: _119  and  _122
REMARK   53  A    between atoms: _122  and  _123
REMARK   54  A    between atoms: _125  and  _127
REMARK   55  A    between atoms: _127  and  _128
REMARK   56  A    between atoms: _127  and  _130
REMARK   57  A    between atoms: _130  and  _131
REMARK   58  A    between atoms: _133  and  _135
REMARK   59  A    between atoms: _135  and  _136
REMARK   60  A    between atoms: _135  and  _138
REMARK   61  A    between atoms: _138  and  _139
REMARK   62  A    between atoms: _144  and  _146
REMARK   63  A    between atoms: _146  and  _147
REMARK   64  A    between atoms: _146  and  _149
REMARK   65  A    between atoms: _149  and  _150
REMARK   66  A    between atoms: _155  and  _156
REMARK   67  A    between atoms: _158  and  _160
REMARK   68  A    between atoms: _160  and  _161
REMARK   69  A    between atoms: _160  and  _163
REMARK   70  A    between atoms: _167  and  _168
REMARK   71  A    between atoms: _173  and  _175
REMARK   72  A    between atoms: _175  and  _176
REMARK   73  A    between atoms: _175  and  _178
REMARK   74  A    between atoms: _178  and  _179
REMARK   75  A    between atoms: _184  and  _185
REMARK   76  A    between atoms: _187  and  _189
REMARK   77  A    between atoms: _189  and  _190
REMARK   78  A    between atoms: _189  and  _192
REMARK   79  A    between atoms: _192  and  _193
REMARK   80  A    between atoms: _196  and  _198
REMARK   81  A    between atoms: _198  and  _199
REMARK   82  A    between atoms: _198  and  _201
REMARK   83  A    between atoms: _201  and  _202
REMARK   84  A    between atoms: _202  and  _203
REMARK   85  A    between atoms: _208  and  _210
REMARK   86  A    between atoms: _210  and  _211
REMARK   87  A    between atoms: _213  and  _215
REMARK   88  A    between atoms: _215  and  _216
REMARK   89  A    between atoms: _215  and  _218
REMARK   90  A    between atoms: _218  and  _219
REMARK   91  A    between atoms: _219  and  _220
REMARK   92  A    between atoms: _220  and  _221
REMARK   93  A    between atoms: _221  and  _222
REMARK   94  A    between atoms: _226  and  _228
REMARK   95  A    between atoms: _228  and  _229
REMARK   96  A    between atoms: _228  and  _231
REMARK   97  A    between atoms: _231  and  _232
REMARK   98  A    between atoms: _242  and  _244
REMARK   99  A    between atoms: _244  and  _245
REMARK  100  A    between atoms: _244  and  _247
REMARK  101  A    between atoms: _247  and  _248
REMARK  102  A    between atoms: _251  and  _253
REMARK  103  A    between atoms: _253  and  _254
REMARK  104  A    between atoms: _253  and  _256
REMARK  105  A    between atoms: _256  and  _257
REMARK  106  A    between atoms: _257  and  _258
REMARK  107  A    between atoms: _258  and  _259
REMARK  108  A    between atoms: _259  and  _260
REMARK  109  A    between atoms: _264  and  _266
REMARK  110  A    between atoms: _266  and  _267
REMARK  111  A    between atoms: _266  and  _269
REMARK  112  A    between atoms: _269  and  _270
REMARK  113  A    between atoms: _276  and  _278
REMARK  114  A    between atoms: _278  and  _279
REMARK  115  A    between atoms: _278  and  _281
REMARK  116  A    between atoms: _281  and  _282
REMARK  117  A    between atoms: _288  and  _290
REMARK  118  A    between atoms: _290  and  _291
REMARK  119  A    between atoms: _290  and  _293
REMARK  120  A    between atoms: _293  and  _294
REMARK  121  A    between atoms: _297  and  _299
REMARK  122  A    between atoms: _299  and  _300
REMARK  123  A    between atoms: _299  and  _302
REMARK  124  A    between atoms: _302  and  _303
REMARK  125  A    between atoms: _305  and  _307
REMARK  126  A    between atoms: _307  and  _308
REMARK  127  A    between atoms: _307  and  _310
REMARK  128  A    between atoms: _310  and  _311
REMARK  129  A    between atoms: _321  and  _323
REMARK  130  A    between atoms: _323  and  _324
REMARK  131  A    between atoms: _326  and  _328
REMARK  132  A    between atoms: _328  and  _329
REMARK  133  A    between atoms: _328  and  _331
REMARK  134  A    between atoms: _331  and  _332
REMARK  135  A    between atoms: _335  and  _337
REMARK  136  A    between atoms: _337  and  _338
REMARK  137  A    between atoms: _337  and  _340
REMARK  138  A    between atoms: _340  and  _341
REMARK  139  A    between atoms: _344  and  _346
REMARK  140  A    between atoms: _346  and  _347
REMARK  141  A    between atoms: _349  and  _351
REMARK  142  A    between atoms: _351  and  _352
REMARK  143  A    between atoms: _355  and  _357
REMARK  144  A    between atoms: _357  and  _358
REMARK  145  A    between atoms: _357  and  _360
REMARK  146  A    between atoms: _360  and  _361
REMARK  147  A    between atoms: _366  and  _367
REMARK  148  A    between atoms: _369  and  _371
REMARK  149  A    between atoms: _371  and  _372
REMARK  150  A    between atoms: _371  and  _374
REMARK  151  A    between atoms: _374  and  _375
REMARK  152  A    between atoms: _375  and  _376
REMARK  153  A    between atoms: _379  and  _381
REMARK  154  A    between atoms: _381  and  _382
REMARK  155  A    between atoms: _381  and  _384
REMARK  156  A    between atoms: _384  and  _385
REMARK  157  A    between atoms: _388  and  _390
REMARK  158  A    between atoms: _390  and  _391
REMARK  159  A    between atoms: _394  and  _396
REMARK  160  A    between atoms: _396  and  _397
REMARK  161  A    between atoms: _396  and  _399
REMARK  162  A    between atoms: _399  and  _400
REMARK  163  A    between atoms: _400  and  _401
REMARK  164  A    between atoms: _401  and  _402
REMARK  165  A    between atoms: _411  and  _413
REMARK  166  A    between atoms: _413  and  _414
REMARK  167  A    between atoms: _413  and  _416
REMARK  168  A    between atoms: _416  and  _417
REMARK  169  A    between atoms: _420  and  _422
REMARK  170  A    between atoms: _422  and  _423
REMARK  171  A    between atoms: _422  and  _425
REMARK  172  A    between atoms: _425  and  _426
REMARK  173  A    between atoms: _436  and  _438
REMARK  174  A    between atoms: _438  and  _439
REMARK  175  A    between atoms: _438  and  _441
REMARK  176  A    between atoms: _441  and  _442
REMARK  177  A    between atoms: _447  and  _448
REMARK  178  A    between atoms: _450  and  _452
REMARK  179  A    between atoms: _452  and  _453
REMARK  180  A    between atoms: _452  and  _455
REMARK  181  A    between atoms: _455  and  _456
REMARK  182  A    between atoms: _461  and  _462
REMARK  183  A    between atoms: _464  and  _466
REMARK  184  A    between atoms: _466  and  _467
REMARK  185  A    between atoms: _466  and  _469
REMARK  186  A    between atoms: _469  and  _470
REMARK  187  A    between atoms: _470  and  _471
REMARK  188  A    between atoms: _471  and  _472
REMARK  189  A    between atoms: _472  and  _473
REMARK  190  A    between atoms: _477  and  _479
REMARK  191  A    between atoms: _479  and  _480
REMARK  192  A    between atoms: _479  and  _482
REMARK  193  A    between atoms: _482  and  _483
REMARK  194  A    between atoms: _486  and  _488
REMARK  195  A    between atoms: _488  and  _489
REMARK  196  A    between atoms: _488  and  _491
REMARK  197  A    between atoms: _494  and  _496
REMARK  198  A    between atoms: _496  and  _497
REMARK  199  A    between atoms: _496  and  _499
REMARK  200  A    between atoms: _499  and  _500
REMARK  201  A    between atoms: _503  and  _505
REMARK  202  A    between atoms: _505  and  _506
REMARK  203  A    between atoms: _505  and  _508
REMARK  204  A    between atoms: _508  and  _509
REMARK  205  A    between atoms: _511  and  _513
REMARK  206  A    between atoms: _513  and  _514
REMARK  207  A    between atoms: _516  and  _518
REMARK  208  A    between atoms: _518  and  _519
REMARK  209  A    between atoms: _518  and  _521
REMARK  210  A    between atoms: _521  and  _522
REMARK  211  A    between atoms: _525  and  _527
REMARK  212  A    between atoms: _527  and  _528
REMARK  213  A    between atoms: _527  and  _530
REMARK  214  A    between atoms: _530  and  _531
REMARK  215  A    between atoms: _534  and  _536
REMARK  216  A    between atoms: _536  and  _537
REMARK  217  A    between atoms: _536  and  _539
REMARK  218  A    between atoms: _539  and  _540
REMARK  219  A    between atoms: _545  and  _547
REMARK  220  A    between atoms: _547  and  _548
REMARK  221  A    between atoms: _547  and  _550
REMARK  222  A    between atoms: _550  and  _551
REMARK  223  A    between atoms: _554  and  _556
REMARK  224  A    between atoms: _556  and  _557
REMARK  225  A    between atoms: _556  and  _559
REMARK  226  A    between atoms: _559  and  _560
REMARK  227  A    between atoms: _560  and  _561
REMARK  228  A    between atoms: _561  and  _562
REMARK  229  A    between atoms: _571  and  _573
REMARK  230  A    between atoms: _573  and  _574
REMARK  231  A    between atoms: _573  and  _576
REMARK  232  A    between atoms: _576  and  _577
REMARK  233  A    between atoms: _580  and  _582
REMARK  234  A    between atoms: _582  and  _583
REMARK  235  A    between atoms: _585  and  _587
REMARK  236  A    between atoms: _587  and  _588
REMARK  237  A    between atoms: _587  and  _590
REMARK  238  A    between atoms: _590  and  _591
REMARK  239  A    between atoms: _591  and  _592
REMARK  240  A    between atoms: _592  and  _593
REMARK  241  A    between atoms: _602  and  _604
REMARK  242  A    between atoms: _604  and  _605
REMARK  243  A    between atoms: _604  and  _607
REMARK  244  A    between atoms: _607  and  _608
REMARK  245  A    between atoms: _608  and  _609
REMARK  246  A    between atoms: _609  and  _610
REMARK  247  A    between atoms: _610  and  _611
REMARK  248  A    between atoms: _615  and  _617
REMARK  249  A    between atoms: _617  and  _618
REMARK  250  A    between atoms: _617  and  _620
REMARK  251  A    between atoms: _620  and  _621
REMARK  252  A    between atoms: _627  and  _629
REMARK  253  A    between atoms: _629  and  _630
REMARK  254  A    between atoms: _633  and  _635
REMARK  255  A    between atoms: _635  and  _636
REMARK  256  A    between atoms: _635  and  _638
REMARK  257  A    between atoms: _638  and  _639
REMARK  258  A    between atoms: _642  and  _644
REMARK  259  A    between atoms: _644  and  _645
REMARK  260  A    between atoms: _644  and  _647
REMARK  261  A    between atoms: _647  and  _648
REMARK  262  A    between atoms: _650  and  _652
REMARK  263  A    between atoms: _652  and  _653
REMARK  264  A    between atoms: _652  and  _655
REMARK  265  A    between atoms: _655  and  _656
REMARK  266  A    between atoms: _656  and  _657
REMARK  267  A    between atoms: _662  and  _664
REMARK  268  A    between atoms: _664  and  _665
REMARK  269  A    between atoms: _664  and  _667
REMARK  270  A    between atoms: _667  and  _668
REMARK  271  A    between atoms: _670  and  _672
REMARK  272  A    between atoms: _672  and  _673
REMARK  273  A    between atoms: _672  and  _675
REMARK  274  A    between atoms: _675  and  _676
REMARK  275  A    between atoms: _679  and  _681
REMARK  276  A    between atoms: _681  and  _682
REMARK  277  A    between atoms: _684  and  _686
REMARK  278  A    between atoms: _686  and  _687
REMARK  279  A    between atoms: _686  and  _689
REMARK  280  A    between atoms: _689  and  _690
REMARK  281  A    between atoms: _693  and  _695
REMARK  282  A    between atoms: _695  and  _696
REMARK  283  A    between atoms: _695  and  _698
REMARK  284  A    between atoms: _701  and  _703
REMARK  285  A    between atoms: _703  and  _704
REMARK  286  A    between atoms: _706  and  _708
REMARK  287  A    between atoms: _708  and  _709
REMARK  288  A    between atoms: _712  and  _714
REMARK  289  A    between atoms: _714  and  _715
REMARK  290  A    between atoms: _714  and  _717
REMARK  291  A    between atoms: _720  and  _722
REMARK  292  A    between atoms: _722  and  _723
REMARK  293  A    between atoms: _722  and  _725
REMARK  294  A    between atoms: _725  and  _726
REMARK  295  A    between atoms: _726  and  _727
REMARK  296  A    between atoms: _729  and  _731
REMARK  297  A    between atoms: _731  and  _732
REMARK  298  A    between atoms: _731  and  _734
REMARK  299  A    between atoms: _734  and  _735
REMARK  300  A    between atoms: _735  and  _736
REMARK                            x       y       z     vdW  Elec       q    Type
REMARK                         _______ _______ _______ _____ _____    ______ ____
ROOT
ATOM      1  CA  GLN A   5      31.303  -8.646   9.379  0.00  0.00    +0.149 C 
ENDROOT
BRANCH   1   2
ATOM      2  C   GLN A   5      32.502  -8.604   8.405  0.00  0.00    +0.241 C 
ATOM      3  O   GLN A   5      33.470  -9.354   8.564  0.00  0.00    -0.273 OA
ATOM      4  N   GLY A   6      32.431  -7.734   7.407  0.00  0.00    -0.295 N 
ATOM      5  H   GLY A   6      31.595  -7.122   7.319  0.00  0.00    +0.150 HD
BRANCH   4   6
ATOM      6  CA  GLY A   6      33.497  -7.624   6.441  0.00  0.00    +0.176 C 
BRANCH   6   7
ATOM      7  C   GLY A   6      32.990  -7.787   5.013  0.00  0.00    +0.243 C 
ATOM      8  O   GLY A   6      32.054  -8.555   4.756  0.00  0.00    -0.273 OA
ATOM      9  N   TYR A   7      33.579  -7.036   4.086  0.00  0.00    -0.297 N 
ATOM     10  H   TYR A   7      34.329  -6.374   4.371  0.00  0.00    +0.150 HD
BRANCH   9  11
ATOM     11  CA  TYR A   7      33.199  -7.118   2.677  0.00  0.00    +0.153 C 
BRANCH  11  12
ATOM     12  C   TYR A   7      34.289  -7.913   1.978  0.00  0.00    +0.241 C 
ATOM     13  O   TYR A   7      35.474  -7.636   2.157  0.00  0.00    -0.273 OA
ATOM     14  N   TYR A   8      33.880  -8.883   1.170  0.00  0.00    -0.298 N 
ATOM     15  H   TYR A   8      32.863  -9.025   1.007  0.00  0.00    +0.150 HD
BRANCH  14  16
ATOM     16  CA  TYR A   8      34.843  -9.746   0.512  0.00  0.00    +0.141 C 
BRANCH  16  17
ATOM     17  C   TYR A   8      34.511 -10.059  -0.946  0.00  0.00    +0.227 C 
ATOM     18  O   TYR A   8      33.350  -9.953  -1.409  0.00  0.00    -0.286 OA
ENDBRANCH  16  17
BRANCH  16  19
ATOM     19  CB  TYR A   8      34.975 -11.043   1.327  0.00  0.00    +0.054 C 
BRANCH  19  20
ATOM     20  CG  TYR A   8      33.670 -11.843   1.420  0.00  0.00    -0.020 A 
ATOM     21  CD2 TYR A   8      32.817 -11.710   2.525  0.00  0.00    -0.001 A 
ATOM     22  CE2 TYR A   8      31.600 -12.424   2.597  0.00  0.00    +0.036 A 
ATOM     23  CZ  TYR A   8      31.234 -13.280   1.557  0.00  0.00    +0.134 A 
ATOM     24  CE1 TYR A   8      32.067 -13.429   0.456  0.00  0.00    +0.036 A 
ATOM     25  CD1 TYR A   8      33.286 -12.704   0.391  0.00  0.00    -0.001 A 
BRANCH  23  26
ATOM     26  OH  TYR A   8      30.024 -13.966   1.590  0.00  0.00    -0.506 OA
ATOM     27  HH  TYR A   8      29.938 -14.520   0.774  0.00  0.00    +0.292 HD
ENDBRANCH  23  26
ENDBRANCH  19  20
ENDBRANCH  16  19
ENDBRANCH  14  16
ENDBRANCH  11  12
BRANCH  11  28
ATOM     28  CB  TYR A   7      33.085  -5.720   2.070  0.00  0.00    +0.055 C 
BRANCH  28  29
ATOM     29  CG  TYR A   7      31.937  -4.955   2.656  0.00  0.00    -0.020 A 
ATOM     30  CD2 TYR A   7      32.107  -4.179   3.800  0.00  0.00    -0.001 A 
ATOM     31  CE2 TYR A   7      31.012  -3.559   4.439  0.00  0.00    +0.036 A 
ATOM     32  CZ  TYR A   7      29.726  -3.732   3.915  0.00  0.00    +0.134 A 
ATOM     33  CE1 TYR A   7      29.545  -4.501   2.768  0.00  0.00    +0.036 A 
ATOM     34  CD1 TYR A   7      30.655  -5.101   2.144  0.00  0.00    -0.001 A 
BRANCH  32  35
ATOM     35  OH  TYR A   7      28.636  -3.143   4.539  0.00  0.00    -0.506 OA
ATOM     36  HH  TYR A   7      28.758  -2.161   4.555  0.00  0.00    +0.292 HD
ENDBRANCH  32  35
ENDBRANCH  28  29
ENDBRANCH  11  28
ENDBRANCH   9  11
ENDBRANCH   6   7
ENDBRANCH   4   6
ENDBRANCH   1   2
BRANCH   1  39
ATOM     37  C   GLY A   4      30.853  -6.920  11.062  0.00  0.00    +0.243 C 
ATOM     38  O   GLY A   4      31.577  -7.493  11.893  0.00  0.00    -0.273 OA
ATOM     39  N   GLN A   5      30.672  -7.391   9.817  0.00  0.00    -0.297 N 
ATOM     40  H   GLN A   5      30.076  -6.859   9.151  0.00  0.00    +0.150 HD
BRANCH  37  41
ATOM     41  CA  GLY A   4      30.155  -5.612  11.454  0.00  0.00    +0.176 C 
BRANCH  41  43
ATOM     42  C   SER A   3      28.597  -5.236   9.649  0.00  0.00    +0.243 C 
ATOM     43  N   GLY A   4      29.661  -4.823  10.334  0.00  0.00    -0.295 N 
ATOM     44  H   GLY A   4      30.139  -3.938  10.070  0.00  0.00    +0.150 HD
ATOM     45  O   SER A   3      27.975  -6.270   9.948  0.00  0.00    -0.273 OA
BRANCH  42  46
ATOM     46  CA  SER A   3      28.139  -4.368   8.459  0.00  0.00    +0.178 C 
BRANCH  46  48
ATOM     47  C   LYS A   2      28.374  -6.209   6.816  0.00  0.00    +0.241 C 
ATOM     48  N   SER A   3      27.624  -5.317   7.468  0.00  0.00    -0.295 N 
ATOM     49  H   SER A   3      26.606  -5.294   7.258  0.00  0.00    +0.150 HD
ATOM     50  O   LYS A   2      29.622  -6.284   6.895  0.00  0.00    -0.273 OA
BRANCH  47  51
ATOM     51  CA  LYS A   2      27.585  -7.144   5.900  0.00  0.00    +0.149 C 
BRANCH  51  53
ATOM     52  C   GLY A   1      28.178  -8.411   3.894  0.00  0.00    +0.240 C 
ATOM     53  N   LYS A   2      28.527  -7.839   5.040  0.00  0.00    -0.297 N 
ATOM     54  H   LYS A   2      29.523  -7.891   5.336  0.00  0.00    +0.150 HD
ATOM     55  O   GLY A   1      27.039  -8.328   3.411  0.00  0.00    -0.274 OA
BRANCH  52  56
ATOM     56  CA  GLY A   1      29.289  -9.165   3.190  0.00  0.00    +0.169 C 
BRANCH  56  57
ATOM     57  N   GLY A   1      28.911  -9.606   1.869  0.00  0.00    -0.236 NA
ATOM     58  H   GLY A   1      27.965 -10.005   1.704  0.00  0.00    +0.142 HD
ENDBRANCH  56  57
ENDBRANCH  52  56
ENDBRANCH  51  53
BRANCH  51  59
ATOM     59  CB  LYS A   2      26.824  -8.196   6.761  0.00  0.00    +0.029 C 
BRANCH  59  60
ATOM     60  CG  LYS A   2      25.941  -7.642   7.892  0.00  0.00    +0.000 C 
BRANCH  60  61
ATOM     61  CD  LYS A   2      25.274  -8.725   8.759  0.00  0.00    -0.024 C 
BRANCH  61  62
ATOM     62  CE  LYS A   2      24.192  -8.077   9.689  0.00  0.00    -0.086 C 
BRANCH  62  63
ATOM     63  NZ  LYS A   2      23.271  -8.972  10.491  0.00  0.00    +0.380 N 
ATOM     64  HZ1 LYS A   2      23.837  -9.567  11.129  0.00  0.00    -0.089 HD
ATOM     65  HZ2 LYS A   2      22.619  -8.385  11.050  0.00  0.00    -0.089 HD
ATOM     66  HZ3 LYS A   2      22.726  -9.576   9.843  0.00  0.00    -0.089 HD
ENDBRANCH  62  63
ENDBRANCH  61  62
ENDBRANCH  60  61
ENDBRANCH  59  60
ENDBRANCH  51  59
ENDBRANCH  47  51
ENDBRANCH  46  48
BRANCH  46  67
ATOM     67  CB  SER A   3      27.000  -3.426   8.917  0.00  0.00    +0.166 C 
BRANCH  67  68
ATOM     68  OG  SER A   3      26.531  -2.593   7.860  0.00  0.00    -0.380 OA
ATOM     69  H   SER A   3      27.277  -2.034   7.526  0.00  0.00    +0.211 HD
ENDBRANCH  67  68
ENDBRANCH  46  67
ENDBRANCH  42  46
ENDBRANCH  41  43
ENDBRANCH  37  41
ENDBRANCH   1  39
BRANCH   1  70
ATOM     70  CB  GLN A   5      30.217  -9.561   8.824  0.00  0.00    +0.039 C 
BRANCH  70  71
ATOM     71  CG  GLN A   5      29.296 -10.061   9.924  0.00  0.00    +0.087 C 
BRANCH  71  72
ATOM     72  CD  GLN A   5      30.072 -10.666  11.083  0.00  0.00    +0.219 C 
ATOM     73  NE2 GLN A   5      30.711  -9.805  11.878  0.00  0.00    -0.329 N 
ATOM     74 HE21 GLN A   5      31.264 -10.155  12.686  0.00  0.00    +0.145 HD
ATOM     75 HE22 GLN A   5      30.656  -8.784  11.690  0.00  0.00    +0.145 HD
ATOM     76  OE1 GLN A   5      30.104 -11.900  11.262  0.00  0.00    -0.275 OA
ENDBRANCH  71  72
ENDBRANCH  70  71
ENDBRANCH   1  70
TORSDOF 32
REMARK  Name = ../refined-set-2016/4gid/4gid_pocket.pdb
REMARK  300 active torsions:
REMARK  status: ('A' for Active; 'I' for Inactive)
REMARK    1  A    between atoms: _1  and  _3
REMARK    2  A    between atoms: _3  and  _4
REMARK    3  A    between atoms: _6  and  _8
REMARK    4  A    between atoms: _8  and  _9
REMARK    5  A    between atoms: _8  and  _11
REMARK    6  A    between atoms: _11  and  _12
REMARK    7  A    between atoms: _12  and  _13
REMARK    8  A    between atoms: _13  and  _14
REMARK    9  A    between atoms: _14  and  _15
REMARK   10  A    between atoms: _19  and  _21
REMARK   11  A    between atoms: _21  and  _22
REMARK   12  A    between atoms: _21  and  _24
REMARK   13  A    between atoms: _24  and  _25
REMARK   14  A    between atoms: _27  and  _29
REMARK   15  A    between atoms: _29  and  _30
REMARK   16  A    between atoms: _32  and  _34
REMARK   17  A    between atoms: _34  and  _35
REMARK   18  A    between atoms: _34  and  _37
REMARK   19  A    between atoms: _37  and  _38
REMARK   20  A    between atoms: _38  and  _39
REMARK   21  A    between atoms: _44  and  _46
REMARK   22  A    between atoms: _46  and  _47
REMARK   23  A    between atoms: _49  and  _51
REMARK   24  A    between atoms: _51  and  _52
REMARK   25  A    between atoms: _51  and  _54
REMARK   26  A    between atoms: _54  and  _55
REMARK   27  A    between atoms: _60  and  _61
REMARK   28  A    between atoms: _63  and  _65
REMARK   29  A    between atoms: _65  and  _66
REMARK   30  A    between atoms: _65  and  _68
REMARK   31  A    between atoms: _68  and  _69
REMARK   32  A    between atoms: _74  and  _75
REMARK   33  A    between atoms: _77  and  _79
REMARK   34  A    between atoms: _79  and  _80
REMARK   35  A    between atoms: _79  and  _82
REMARK   36  A    between atoms: _82  and  _83
REMARK   37  A    between atoms: _86  and  _88
REMARK   38  A    between atoms: _88  and  _89
REMARK   39  A    between atoms: _88  and  _91
REMARK   40  A    between atoms: _94  and  _96
REMARK   41  A    between atoms: _96  and  _97
REMARK   42  A    between atoms: _96  and  _99
REMARK   43  A    between atoms: _99  and  _100
REMARK   44  A    between atoms: _103  and  _105
REMARK   45  A    between atoms: _105  and  _106
REMARK   46  A    between atoms: _105  and  _108
REMARK   47  A    between atoms: _108  and  _109
REMARK   48  A    between atoms: _112  and  _114
REMARK   49  A    between atoms: _114  and  _115
REMARK   50  A    between atoms: _117  and  _119
REMARK   51  A    between atoms: _119  and  _120
REMARK   52  A    between atoms: _119  and  _122
REMARK   53  A    between atoms: _122  and  _123
REMARK   54  A    between atoms: _125  and  _127
REMARK   55  A    between atoms: _127  and  _128
REMARK   56  A    between atoms: _127  and  _130
REMARK   57  A    between atoms: _130  and  _131
REMARK   58  A    between atoms: _133  and  _135
REMARK   59  A    between atoms: _135  and  _136
REMARK   60  A    between atoms: _135  and  _138
REMARK   61  A    between atoms: _138  and  _139
REMARK   62  A    between atoms: _144  and  _146
REMARK   63  A    between atoms: _146  and  _147
REMARK   64  A    between atoms: _146  and  _149
REMARK   65  A    between atoms: _149  and  _150
REMARK   66  A    between atoms: _155  and  _156
REMARK   67  A    between atoms: _158  and  _160
REMARK   68  A    between atoms: _160  and  _161
REMARK   69  A    between atoms: _160  and  _163
REMARK   70  A    between atoms: _167  and  _168
REMARK   71  A    between atoms: _173  and  _175
REMARK   72  A    between atoms: _175  and  _176
REMARK   73  A    between atoms: _175  and  _178
REMARK   74  A    between atoms: _178  and  _179
REMARK   75  A    between atoms: _184  and  _185
REMARK   76  A    between atoms: _187  and  _189
REMARK   77  A    between atoms: _189  and  _190
REMARK   78  A    between atoms: _189  and  _192
REMARK   79  A    between atoms: _192  and  _193
REMARK   80  A    between atoms: _196  and  _198
REMARK   81  A    between atoms: _198  and  _199
REMARK   82  A    between atoms: _198  and  _201
REMARK   83  A    between atoms: _201  and  _202
REMARK   84  A    between atoms: _202  and  _203
REMARK   85  A    between atoms: _208  and  _210
REMARK   86  A    between atoms: _210  and  _211
REMARK   87  A    between atoms: _213  and  _215
REMARK   88  A    between atoms: _215  and  _216
REMARK   89  A    between atoms: _215  and  _218
REMARK   90  A    between atoms: _218  and  _219
REMARK   91  A    between atoms: _219  and  _220
REMARK   92  A    between atoms: _220  and  _221
REMARK   93  A    between atoms: _221  and  _222
REMARK   94  A    between atoms: _226  and  _228
REMARK   95  A    between atoms: _228  and  _229
REMARK   96  A    between atoms: _228  and  _231
REMARK   97  A    between atoms: _231  and  _232
REMARK   98  A    between atoms: _242  and  _244
REMARK   99  A    between atoms: _244  and  _245
REMARK  100  A    between atoms: _244  and  _247
REMARK  101  A    between atoms: _247  and  _248
REMARK  102  A    between atoms: _251  and  _253
REMARK  103  A    between atoms: _253  and  _254
REMARK  104  A    between atoms: _253  and  _256
REMARK  105  A    between atoms: _256  and  _257
REMARK  106  A    between atoms: _257  and  _258
REMARK  107  A    between atoms: _258  and  _259
REMARK  108  A    between atoms: _259  and  _260
REMARK  109  A    between atoms: _264  and  _266
REMARK  110  A    between atoms: _266  and  _267
REMARK  111  A    between atoms: _266  and  _269
REMARK  112  A    between atoms: _269  and  _270
REMARK  113  A    between atoms: _276  and  _278
REMARK  114  A    between atoms: _278  and  _279
REMARK  115  A    between atoms: _278  and  _281
REMARK  116  A    between atoms: _281  and  _282
REMARK  117  A    between atoms: _288  and  _290
REMARK  118  A    between atoms: _290  and  _291
REMARK  119  A    between atoms: _290  and  _293
REMARK  120  A    between atoms: _293  and  _294
REMARK  121  A    between atoms: _297  and  _299
REMARK  122  A    between atoms: _299  and  _300
REMARK  123  A    between atoms: _299  and  _302
REMARK  124  A    between atoms: _302  and  _303
REMARK  125  A    between atoms: _305  and  _307
REMARK  126  A    between atoms: _307  and  _308
REMARK  127  A    between atoms: _307  and  _310
REMARK  128  A    between atoms: _310  and  _311
REMARK  129  A    between atoms: _321  and  _323
REMARK  130  A    between atoms: _323  and  _324
REMARK  131  A    between atoms: _326  and  _328
REMARK  132  A    between atoms: _328  and  _329
REMARK  133  A    between atoms: _328  and  _331
REMARK  134  A    between atoms: _331  and  _332
REMARK  135  A    between atoms: _335  and  _337
REMARK  136  A    between atoms: _337  and  _338
REMARK  137  A    between atoms: _337  and  _340
REMARK  138  A    between atoms: _340  and  _341
REMARK  139  A    between atoms: _344  and  _346
REMARK  140  A    between atoms: _346  and  _347
REMARK  141  A    between atoms: _349  and  _351
REMARK  142  A    between atoms: _351  and  _352
REMARK  143  A    between atoms: _355  and  _357
REMARK  144  A    between atoms: _357  and  _358
REMARK  145  A    between atoms: _357  and  _360
REMARK  146  A    between atoms: _360  and  _361
REMARK  147  A    between atoms: _366  and  _367
REMARK  148  A    between atoms: _369  and  _371
REMARK  149  A    between atoms: _371  and  _372
REMARK  150  A    between atoms: _371  and  _374
REMARK  151  A    between atoms: _374  and  _375
REMARK  152  A    between atoms: _375  and  _376
REMARK  153  A    between atoms: _379  and  _381
REMARK  154  A    between atoms: _381  and  _382
REMARK  155  A    between atoms: _381  and  _384
REMARK  156  A    between atoms: _384  and  _385
REMARK  157  A    between atoms: _388  and  _390
REMARK  158  A    between atoms: _390  and  _391
REMARK  159  A    between atoms: _394  and  _396
REMARK  160  A    between atoms: _396  and  _397
REMARK  161  A    between atoms: _396  and  _399
REMARK  162  A    between atoms: _399  and  _400
REMARK  163  A    between atoms: _400  and  _401
REMARK  164  A    between atoms: _401  and  _402
REMARK  165  A    between atoms: _411  and  _413
REMARK  166  A    between atoms: _413  and  _414
REMARK  167  A    between atoms: _413  and  _416
REMARK  168  A    between atoms: _416  and  _417
REMARK  169  A    between atoms: _420  and  _422
REMARK  170  A    between atoms: _422  and  _423
REMARK  171  A    between atoms: _422  and  _425
REMARK  172  A    between atoms: _425  and  _426
REMARK  173  A    between atoms: _436  and  _438
REMARK  174  A    between atoms: _438  and  _439
REMARK  175  A    between atoms: _438  and  _441
REMARK  176  A    between atoms: _441  and  _442
REMARK  177  A    between atoms: _447  and  _448
REMARK  178  A    between atoms: _450  and  _452
REMARK  179  A    between atoms: _452  and  _453
REMARK  180  A    between atoms: _452  and  _455
REMARK  181  A    between atoms: _455  and  _456
REMARK  182  A    between atoms: _461  and  _462
REMARK  183  A    between atoms: _464  and  _466
REMARK  184  A    between atoms: _466  and  _467
REMARK  185  A    between atoms: _466  and  _469
REMARK  186  A    between atoms: _469  and  _470
REMARK  187  A    between atoms: _470  and  _471
REMARK  188  A    between atoms: _471  and  _472
REMARK  189  A    between atoms: _472  and  _473
REMARK  190  A    between atoms: _477  and  _479
REMARK  191  A    between atoms: _479  and  _480
REMARK  192  A    between atoms: _479  and  _482
REMARK  193  A    between atoms: _482  and  _483
REMARK  194  A    between atoms: _486  and  _488
REMARK  195  A    between atoms: _488  and  _489
REMARK  196  A    between atoms: _488  and  _491
REMARK  197  A    between atoms: _494  and  _496
REMARK  198  A    between atoms: _496  and  _497
REMARK  199  A    between atoms: _496  and  _499
REMARK  200  A    between atoms: _499  and  _500
REMARK  201  A    between atoms: _503  and  _505
REMARK  202  A    between atoms: _505  and  _506
REMARK  203  A    between atoms: _505  and  _508
REMARK  204  A    between atoms: _508  and  _509
REMARK  205  A    between atoms: _511  and  _513
REMARK  206  A    between atoms: _513  and  _514
REMARK  207  A    between atoms: _516  and  _518
REMARK  208  A    between atoms: _518  and  _519
REMARK  209  A    between atoms: _518  and  _521
REMARK  210  A    between atoms: _521  and  _522
REMARK  211  A    between atoms: _525  and  _527
REMARK  212  A    between atoms: _527  and  _528
REMARK  213  A    between atoms: _527  and  _530
REMARK  214  A    between atoms: _530  and  _531
REMARK  215  A    between atoms: _534  and  _536
REMARK  216  A    between atoms: _536  and  _537
REMARK  217  A    between atoms: _536  and  _539
REMARK  218  A    between atoms: _539  and  _540
REMARK  219  A    between atoms: _545  and  _547
REMARK  220  A    between atoms: _547  and  _548
REMARK  221  A    between atoms: _547  and  _550
REMARK  222  A    between atoms: _550  and  _551
REMARK  223  A    between atoms: _554  and  _556
REMARK  224  A    between atoms: _556  and  _557
REMARK  225  A    between atoms: _556  and  _559
REMARK  226  A    between atoms: _559  and  _560
REMARK  227  A    between atoms: _560  and  _561
REMARK  228  A    between atoms: _561  and  _562
REMARK  229  A    between atoms: _571  and  _573
REMARK  230  A    between atoms: _573  and  _574
REMARK  231  A    between atoms: _573  and  _576
REMARK  232  A    between atoms: _576  and  _577
REMARK  233  A    between atoms: _580  and  _582
REMARK  234  A    between atoms: _582  and  _583
REMARK  235  A    between atoms: _585  and  _587
REMARK  236  A    between atoms: _587  and  _588
REMARK  237  A    between atoms: _587  and  _590
REMARK  238  A    between atoms: _590  and  _591
REMARK  239  A    between atoms: _591  and  _592
REMARK  240  A    between atoms: _592  and  _593
REMARK  241  A    between atoms: _602  and  _604
REMARK  242  A    between atoms: _604  and  _605
REMARK  243  A    between atoms: _604  and  _607
REMARK  244  A    between atoms: _607  and  _608
REMARK  245  A    between atoms: _608  and  _609
REMARK  246  A    between atoms: _609  and  _610
REMARK  247  A    between atoms: _610  and  _611
REMARK  248  A    between atoms: _615  and  _617
REMARK  249  A    between atoms: _617  and  _618
REMARK  250  A    between atoms: _617  and  _620
REMARK  251  A    between atoms: _620  and  _621
REMARK  252  A    between atoms: _627  and  _629
REMARK  253  A    between atoms: _629  and  _630
REMARK  254  A    between atoms: _633  and  _635
REMARK  255  A    between atoms: _635  and  _636
REMARK  256  A    between atoms: _635  and  _638
REMARK  257  A    between atoms: _638  and  _639
REMARK  258  A    between atoms: _642  and  _644
REMARK  259  A    between atoms: _644  and  _645
REMARK  260  A    between atoms: _644  and  _647
REMARK  261  A    between atoms: _647  and  _648
REMARK  262  A    between atoms: _650  and  _652
REMARK  263  A    between atoms: _652  and  _653
REMARK  264  A    between atoms: _652  and  _655
REMARK  265  A    between atoms: _655  and  _656
REMARK  266  A    between atoms: _656  and  _657
REMARK  267  A    between atoms: _662  and  _664
REMARK  268  A    between atoms: _664  and  _665
REMARK  269  A    between atoms: _664  and  _667
REMARK  270  A    between atoms: _667  and  _668
REMARK  271  A    between atoms: _670  and  _672
REMARK  272  A    between atoms: _672  and  _673
REMARK  273  A    between atoms: _672  and  _675
REMARK  274  A    between atoms: _675  and  _676
REMARK  275  A    between atoms: _679  and  _681
REMARK  276  A    between atoms: _681  and  _682
REMARK  277  A    between atoms: _684  and  _686
REMARK  278  A    between atoms: _686  and  _687
REMARK  279  A    between atoms: _686  and  _689
REMARK  280  A    between atoms: _689  and  _690
REMARK  281  A    between atoms: _693  and  _695
REMARK  282  A    between atoms: _695  and  _696
REMARK  283  A    between atoms: _695  and  _698
REMARK  284  A    between atoms: _701  and  _703
REMARK  285  A    between atoms: _703  and  _704
REMARK  286  A    between atoms: _706  and  _708
REMARK  287  A    between atoms: _708  and  _709
REMARK  288  A    between atoms: _712  and  _714
REMARK  289  A    between atoms: _714  and  _715
REMARK  290  A    between atoms: _714  and  _717
REMARK  291  A    between atoms: _720  and  _722
REMARK  292  A    between atoms: _722  and  _723
REMARK  293  A    between atoms: _722  and  _725
REMARK  294  A    between atoms: _725  and  _726
REMARK  295  A    between atoms: _726  and  _727
REMARK  296  A    between atoms: _729  and  _731
REMARK  297  A    between atoms: _731  and  _732
REMARK  298  A    between atoms: _731  and  _734
REMARK  299  A    between atoms: _734  and  _735
REMARK  300  A    between atoms: _735  and  _736
REMARK                            x       y       z     vdW  Elec       q    Type
REMARK                         _______ _______ _______ _____ _____    ______ ____
ROOT
ATOM      1  C   THR A   4      43.583  -0.419   3.445  0.00  0.00    +0.243 C 
ATOM      2  N   GLY A   5      43.432  -1.040   4.619  0.00  0.00    -0.295 N 
ATOM      3  H   GLY A   5      42.721  -1.794   4.707  0.00  0.00    +0.150 HD
ATOM      4  O   THR A   4      44.385   0.486   3.265  0.00  0.00    -0.273 OA
ENDROOT
BRANCH   2   5
ATOM      5  CA  GLY A   5      44.240  -0.685   5.777  0.00  0.00    +0.176 C 
BRANCH   5   6
ATOM      6  C   GLY A   5      45.504  -1.528   5.959  0.00  0.00    +0.243 C 
ATOM      7  O   GLY A   5      46.168  -1.446   6.994  0.00  0.00    -0.273 OA
ATOM      8  N   SER A   6      45.864  -2.340   4.965  0.00  0.00    -0.295 N 
ATOM      9  H   SER A   6      45.290  -2.374   4.099  0.00  0.00    +0.150 HD
BRANCH   8  10
ATOM     10  CA  SER A   6      47.055  -3.185   5.073  0.00  0.00    +0.178 C 
BRANCH  10  11
ATOM     11  C   SER A   6      47.572  -3.549   3.690  0.00  0.00    +0.243 C 
ATOM     12  N   SER A   7      48.723  -4.210   3.625  0.00  0.00    -0.295 N 
ATOM     13  H   SER A   7      49.202  -4.498   4.502  0.00  0.00    +0.150 HD
ATOM     14  O   SER A   6      46.929  -3.252   2.690  0.00  0.00    -0.273 OA
BRANCH  12  15
ATOM     15  CA  SER A   7      49.326  -4.538   2.320  0.00  0.00    +0.178 C 
BRANCH  15  16
ATOM     16  C   SER A   7      49.731  -5.992   2.058  0.00  0.00    +0.243 C 
ATOM     17  N   ASN A   8      49.321  -6.892   2.946  0.00  0.00    -0.298 N 
ATOM     18  H   ASN A   8      48.776  -6.577   3.774  0.00  0.00    +0.150 HD
ATOM     19  O   SER A   7      50.399  -6.291   1.054  0.00  0.00    -0.273 OA
BRANCH  17  20
ATOM     20  CA  ASN A   8      49.615  -8.301   2.789  0.00  0.00    +0.146 C 
BRANCH  20  21
ATOM     21  C   ASN A   8      48.449  -9.102   2.246  0.00  0.00    +0.227 C 
ATOM     22  O   ASN A   8      47.295  -8.905   2.668  0.00  0.00    -0.286 OA
ENDBRANCH  20  21
BRANCH  20  23
ATOM     23  CB  ASN A   8      50.032  -8.918   4.131  0.00  0.00    +0.112 C 
BRANCH  23  24
ATOM     24  CG  ASN A   8      51.472  -8.592   4.511  0.00  0.00    +0.222 C 
ATOM     25  OD1 ASN A   8      51.756  -7.544   5.101  0.00  0.00    -0.275 OA
ATOM     26  ND2 ASN A   8      52.397  -9.490   4.159  0.00  0.00    -0.329 N 
ATOM     27 HD21 ASN A   8      53.399  -9.319   4.381  0.00  0.00    +0.145 HD
ATOM     28 HD22 ASN A   8      52.115 -10.360   3.663  0.00  0.00    +0.145 HD
ENDBRANCH  23  24
ENDBRANCH  20  23
ENDBRANCH  17  20
ENDBRANCH  15  16
BRANCH  15  29
ATOM     29  CB  SER A   7      50.526  -3.634   2.135  0.00  0.00    +0.166 C 
BRANCH  29  30
ATOM     30  OG  SER A   7      50.146  -2.312   2.468  0.00  0.00    -0.380 OA
ATOM     31  H   SER A   7      50.922  -1.708   2.352  0.00  0.00    +0.211 HD
ENDBRANCH  29  30
ENDBRANCH  15  29
ENDBRANCH  12  15
ENDBRANCH  10  11
BRANCH  10  32
ATOM     32  CB  SER A   6      46.752  -4.447   5.884  0.00  0.00    +0.166 C 
BRANCH  32  33
ATOM     33  OG  SER A   6      45.833  -5.322   5.215  0.00  0.00    -0.380 OA
ATOM     34  H   SER A   6      44.979  -4.846   5.060  0.00  0.00    +0.211 HD
ENDBRANCH  32  33
ENDBRANCH  10  32
ENDBRANCH   8  10
ENDBRANCH   5   6
ENDBRANCH   2   5
BRANCH   1  35
ATOM     35  CA  THR A   4      42.708  -0.891   2.285  0.00  0.00    +0.176 C 
BRANCH  35  37
ATOM     36  C   ASP A   3      42.235  -3.209   2.783  0.00  0.00    +0.241 C 
ATOM     37  N   THR A   4      41.796  -1.956   2.683  0.00  0.00    -0.295 N 
ATOM     38  H   THR A   4      40.801  -1.737   2.889  0.00  0.00    +0.150 HD
ATOM     39  O   ASP A   3      43.409  -3.523   2.557  0.00  0.00    -0.273 OA
BRANCH  36  40
ATOM     40  CA  ASP A   3      41.228  -4.272   3.212  0.00  0.00    +0.160 C 
BRANCH  40  43
ATOM     41  C   VAL A   2      39.429  -5.379   1.992  0.00  0.00    +0.241 C 
ATOM     42  O   VAL A   2      38.569  -4.861   2.711  0.00  0.00    -0.273 OA
ATOM     43  N   ASP A   3      40.733  -5.144   2.142  0.00  0.00    -0.297 N 
ATOM     44  H   ASP A   3      41.411  -5.587   1.489  0.00  0.00    +0.150 HD
BRANCH  41  45
ATOM     45  CA  VAL A   2      39.039  -6.360   0.882  0.00  0.00    +0.148 C 
BRANCH  45  48
ATOM     46  C   LEU A   1      39.016  -8.537   1.934  0.00  0.00    +0.238 C 
ATOM     47  O   LEU A   1      40.232  -8.643   1.812  0.00  0.00    -0.274 OA
ATOM     48  N   VAL A   2      38.343  -7.465   1.523  0.00  0.00    -0.297 N 
ATOM     49  H   VAL A   2      37.313  -7.417   1.661  0.00  0.00    +0.150 HD
BRANCH  46  50
ATOM     50  CA  LEU A   1      38.214  -9.654   2.618  0.00  0.00    +0.145 C 
BRANCH  50  51
ATOM     51  N   LEU A   1      38.632 -10.955   2.087  0.00  0.00    -0.238 NA
ATOM     52  H   LEU A   1      39.115 -11.620   2.724  0.00  0.00    +0.142 HD
ENDBRANCH  50  51
BRANCH  50  53
ATOM     53  CB  LEU A   1      38.488  -9.582   4.126  0.00  0.00    +0.026 C 
BRANCH  53  54
ATOM     54  CG  LEU A   1      38.126  -8.240   4.807  0.00  0.00    +0.002 C 
ATOM     55  CD2 LEU A   1      39.175  -7.873   5.843  0.00  0.00    +0.000 C 
ATOM     56  CD1 LEU A   1      36.776  -8.333   5.503  0.00  0.00    +0.000 C 
ENDBRANCH  53  54
ENDBRANCH  50  53
ENDBRANCH  46  50
ENDBRANCH  45  48
BRANCH  45  57
ATOM     57  CB  VAL A   2      38.157  -5.708  -0.224  0.00  0.00    +0.027 C 
ATOM     58  CG2 VAL A   2      36.880  -5.102   0.367  0.00  0.00    +0.002 C 
ATOM     59  CG1 VAL A   2      37.762  -6.807  -1.258  0.00  0.00    +0.002 C 
ENDBRANCH  45  57
ENDBRANCH  41  45
ENDBRANCH  40  43
BRANCH  40  60
ATOM     60  CB  ASP A   3      41.855  -5.146   4.315  0.00  0.00    +0.143 C 
BRANCH  60  61
ATOM     61  CG  ASP A   3      42.590  -4.336   5.355  0.00  0.00    +0.367 C 
ATOM     62  OD2 ASP A   3      43.613  -4.825   5.897  0.00  0.00    -0.246 OA
ATOM     63  OD1 ASP A   3      42.129  -3.205   5.640  0.00  0.00    -0.246 OA
ENDBRANCH  60  61
ENDBRANCH  40  60
ENDBRANCH  36  40
ENDBRANCH  35  37
BRANCH  35  64
ATOM     64  CB  THR A   4      41.965   0.335   1.715  0.00  0.00    +0.137 C 
ATOM     65  CG2 THR A   4      41.194  -0.050   0.455  0.00  0.00    +0.034 C 
BRANCH  64  66
ATOM     66  OG1 THR A   4      41.062   0.839   2.710  0.00  0.00    -0.382 OA
ATOM     67  HG1 THR A   4      41.574   1.103   3.515  0.00  0.00    +0.210 HD
ENDBRANCH  64  66
ENDBRANCH  35  64
ENDBRANCH   1  35
TORSDOF 29
REMARK  Name = ../refined-set-2016/4gid/4gid_pocket.pdb
REMARK  300 active torsions:
REMARK  status: ('A' for Active; 'I' for Inactive)
REMARK    1  A    between atoms: _1  and  _3
REMARK    2  A    between atoms: _3  and  _4
REMARK    3  A    between atoms: _6  and  _8
REMARK    4  A    between atoms: _8  and  _9
REMARK    5  A    between atoms: _8  and  _11
REMARK    6  A    between atoms: _11  and  _12
REMARK    7  A    between atoms: _12  and  _13
REMARK    8  A    between atoms: _13  and  _14
REMARK    9  A    between atoms: _14  and  _15
REMARK   10  A    between atoms: _19  and  _21
REMARK   11  A    between atoms: _21  and  _22
REMARK   12  A    between atoms: _21  and  _24
REMARK   13  A    between atoms: _24  and  _25
REMARK   14  A    between atoms: _27  and  _29
REMARK   15  A    between atoms: _29  and  _30
REMARK   16  A    between atoms: _32  and  _34
REMARK   17  A    between atoms: _34  and  _35
REMARK   18  A    between atoms: _34  and  _37
REMARK   19  A    between atoms: _37  and  _38
REMARK   20  A    between atoms: _38  and  _39
REMARK   21  A    between atoms: _44  and  _46
REMARK   22  A    between atoms: _46  and  _47
REMARK   23  A    between atoms: _49  and  _51
REMARK   24  A    between atoms: _51  and  _52
REMARK   25  A    between atoms: _51  and  _54
REMARK   26  A    between atoms: _54  and  _55
REMARK   27  A    between atoms: _60  and  _61
REMARK   28  A    between atoms: _63  and  _65
REMARK   29  A    between atoms: _65  and  _66
REMARK   30  A    between atoms: _65  and  _68
REMARK   31  A    between atoms: _68  and  _69
REMARK   32  A    between atoms: _74  and  _75
REMARK   33  A    between atoms: _77  and  _79
REMARK   34  A    between atoms: _79  and  _80
REMARK   35  A    between atoms: _79  and  _82
REMARK   36  A    between atoms: _82  and  _83
REMARK   37  A    between atoms: _86  and  _88
REMARK   38  A    between atoms: _88  and  _89
REMARK   39  A    between atoms: _88  and  _91
REMARK   40  A    between atoms: _94  and  _96
REMARK   41  A    between atoms: _96  and  _97
REMARK   42  A    between atoms: _96  and  _99
REMARK   43  A    between atoms: _99  and  _100
REMARK   44  A    between atoms: _103  and  _105
REMARK   45  A    between atoms: _105  and  _106
REMARK   46  A    between atoms: _105  and  _108
REMARK   47  A    between atoms: _108  and  _109
REMARK   48  A    between atoms: _112  and  _114
REMARK   49  A    between atoms: _114  and  _115
REMARK   50  A    between atoms: _117  and  _119
REMARK   51  A    between atoms: _119  and  _120
REMARK   52  A    between atoms: _119  and  _122
REMARK   53  A    between atoms: _122  and  _123
REMARK   54  A    between atoms: _125  and  _127
REMARK   55  A    between atoms: _127  and  _128
REMARK   56  A    between atoms: _127  and  _130
REMARK   57  A    between atoms: _130  and  _131
REMARK   58  A    between atoms: _133  and  _135
REMARK   59  A    between atoms: _135  and  _136
REMARK   60  A    between atoms: _135  and  _138
REMARK   61  A    between atoms: _138  and  _139
REMARK   62  A    between atoms: _144  and  _146
REMARK   63  A    between atoms: _146  and  _147
REMARK   64  A    between atoms: _146  and  _149
REMARK   65  A    between atoms: _149  and  _150
REMARK   66  A    between atoms: _155  and  _156
REMARK   67  A    between atoms: _158  and  _160
REMARK   68  A    between atoms: _160  and  _161
REMARK   69  A    between atoms: _160  and  _163
REMARK   70  A    between atoms: _167  and  _168
REMARK   71  A    between atoms: _173  and  _175
REMARK   72  A    between atoms: _175  and  _176
REMARK   73  A    between atoms: _175  and  _178
REMARK   74  A    between atoms: _178  and  _179
REMARK   75  A    between atoms: _184  and  _185
REMARK   76  A    between atoms: _187  and  _189
REMARK   77  A    between atoms: _189  and  _190
REMARK   78  A    between atoms: _189  and  _192
REMARK   79  A    between atoms: _192  and  _193
REMARK   80  A    between atoms: _196  and  _198
REMARK   81  A    between atoms: _198  and  _199
REMARK   82  A    between atoms: _198  and  _201
REMARK   83  A    between atoms: _201  and  _202
REMARK   84  A    between atoms: _202  and  _203
REMARK   85  A    between atoms: _208  and  _210
REMARK   86  A    between atoms: _210  and  _211
REMARK   87  A    between atoms: _213  and  _215
REMARK   88  A    between atoms: _215  and  _216
REMARK   89  A    between atoms: _215  and  _218
REMARK   90  A    between atoms: _218  and  _219
REMARK   91  A    between atoms: _219  and  _220
REMARK   92  A    between atoms: _220  and  _221
REMARK   93  A    between atoms: _221  and  _222
REMARK   94  A    between atoms: _226  and  _228
REMARK   95  A    between atoms: _228  and  _229
REMARK   96  A    between atoms: _228  and  _231
REMARK   97  A    between atoms: _231  and  _232
REMARK   98  A    between atoms: _242  and  _244
REMARK   99  A    between atoms: _244  and  _245
REMARK  100  A    between atoms: _244  and  _247
REMARK  101  A    between atoms: _247  and  _248
REMARK  102  A    between atoms: _251  and  _253
REMARK  103  A    between atoms: _253  and  _254
REMARK  104  A    between atoms: _253  and  _256
REMARK  105  A    between atoms: _256  and  _257
REMARK  106  A    between atoms: _257  and  _258
REMARK  107  A    between atoms: _258  and  _259
REMARK  108  A    between atoms: _259  and  _260
REMARK  109  A    between atoms: _264  and  _266
REMARK  110  A    between atoms: _266  and  _267
REMARK  111  A    between atoms: _266  and  _269
REMARK  112  A    between atoms: _269  and  _270
REMARK  113  A    between atoms: _276  and  _278
REMARK  114  A    between atoms: _278  and  _279
REMARK  115  A    between atoms: _278  and  _281
REMARK  116  A    between atoms: _281  and  _282
REMARK  117  A    between atoms: _288  and  _290
REMARK  118  A    between atoms: _290  and  _291
REMARK  119  A    between atoms: _290  and  _293
REMARK  120  A    between atoms: _293  and  _294
REMARK  121  A    between atoms: _297  and  _299
REMARK  122  A    between atoms: _299  and  _300
REMARK  123  A    between atoms: _299  and  _302
REMARK  124  A    between atoms: _302  and  _303
REMARK  125  A    between atoms: _305  and  _307
REMARK  126  A    between atoms: _307  and  _308
REMARK  127  A    between atoms: _307  and  _310
REMARK  128  A    between atoms: _310  and  _311
REMARK  129  A    between atoms: _321  and  _323
REMARK  130  A    between atoms: _323  and  _324
REMARK  131  A    between atoms: _326  and  _328
REMARK  132  A    between atoms: _328  and  _329
REMARK  133  A    between atoms: _328  and  _331
REMARK  134  A    between atoms: _331  and  _332
REMARK  135  A    between atoms: _335  and  _337
REMARK  136  A    between atoms: _337  and  _338
REMARK  137  A    between atoms: _337  and  _340
REMARK  138  A    between atoms: _340  and  _341
REMARK  139  A    between atoms: _344  and  _346
REMARK  140  A    between atoms: _346  and  _347
REMARK  141  A    between atoms: _349  and  _351
REMARK  142  A    between atoms: _351  and  _352
REMARK  143  A    between atoms: _355  and  _357
REMARK  144  A    between atoms: _357  and  _358
REMARK  145  A    between atoms: _357  and  _360
REMARK  146  A    between atoms: _360  and  _361
REMARK  147  A    between atoms: _366  and  _367
REMARK  148  A    between atoms: _369  and  _371
REMARK  149  A    between atoms: _371  and  _372
REMARK  150  A    between atoms: _371  and  _374
REMARK  151  A    between atoms: _374  and  _375
REMARK  152  A    between atoms: _375  and  _376
REMARK  153  A    between atoms: _379  and  _381
REMARK  154  A    between atoms: _381  and  _382
REMARK  155  A    between atoms: _381  and  _384
REMARK  156  A    between atoms: _384  and  _385
REMARK  157  A    between atoms: _388  and  _390
REMARK  158  A    between atoms: _390  and  _391
REMARK  159  A    between atoms: _394  and  _396
REMARK  160  A    between atoms: _396  and  _397
REMARK  161  A    between atoms: _396  and  _399
REMARK  162  A    between atoms: _399  and  _400
REMARK  163  A    between atoms: _400  and  _401
REMARK  164  A    between atoms: _401  and  _402
REMARK  165  A    between atoms: _411  and  _413
REMARK  166  A    between atoms: _413  and  _414
REMARK  167  A    between atoms: _413  and  _416
REMARK  168  A    between atoms: _416  and  _417
REMARK  169  A    between atoms: _420  and  _422
REMARK  170  A    between atoms: _422  and  _423
REMARK  171  A    between atoms: _422  and  _425
REMARK  172  A    between atoms: _425  and  _426
REMARK  173  A    between atoms: _436  and  _438
REMARK  174  A    between atoms: _438  and  _439
REMARK  175  A    between atoms: _438  and  _441
REMARK  176  A    between atoms: _441  and  _442
REMARK  177  A    between atoms: _447  and  _448
REMARK  178  A    between atoms: _450  and  _452
REMARK  179  A    between atoms: _452  and  _453
REMARK  180  A    between atoms: _452  and  _455
REMARK  181  A    between atoms: _455  and  _456
REMARK  182  A    between atoms: _461  and  _462
REMARK  183  A    between atoms: _464  and  _466
REMARK  184  A    between atoms: _466  and  _467
REMARK  185  A    between atoms: _466  and  _469
REMARK  186  A    between atoms: _469  and  _470
REMARK  187  A    between atoms: _470  and  _471
REMARK  188  A    between atoms: _471  and  _472
REMARK  189  A    between atoms: _472  and  _473
REMARK  190  A    between atoms: _477  and  _479
REMARK  191  A    between atoms: _479  and  _480
REMARK  192  A    between atoms: _479  and  _482
REMARK  193  A    between atoms: _482  and  _483
REMARK  194  A    between atoms: _486  and  _488
REMARK  195  A    between atoms: _488  and  _489
REMARK  196  A    between atoms: _488  and  _491
REMARK  197  A    between atoms: _494  and  _496
REMARK  198  A    between atoms: _496  and  _497
REMARK  199  A    between atoms: _496  and  _499
REMARK  200  A    between atoms: _499  and  _500
REMARK  201  A    between atoms: _503  and  _505
REMARK  202  A    between atoms: _505  and  _506
REMARK  203  A    between atoms: _505  and  _508
REMARK  204  A    between atoms: _508  and  _509
REMARK  205  A    between atoms: _511  and  _513
REMARK  206  A    between atoms: _513  and  _514
REMARK  207  A    between atoms: _516  and  _518
REMARK  208  A    between atoms: _518  and  _519
REMARK  209  A    between atoms: _518  and  _521
REMARK  210  A    between atoms: _521  and  _522
REMARK  211  A    between atoms: _525  and  _527
REMARK  212  A    between atoms: _527  and  _528
REMARK  213  A    between atoms: _527  and  _530
REMARK  214  A    between atoms: _530  and  _531
REMARK  215  A    between atoms: _534  and  _536
REMARK  216  A    between atoms: _536  and  _537
REMARK  217  A    between atoms: _536  and  _539
REMARK  218  A    between atoms: _539  and  _540
REMARK  219  A    between atoms: _545  and  _547
REMARK  220  A    between atoms: _547  and  _548
REMARK  221  A    between atoms: _547  and  _550
REMARK  222  A    between atoms: _550  and  _551
REMARK  223  A    between atoms: _554  and  _556
REMARK  224  A    between atoms: _556  and  _557
REMARK  225  A    between atoms: _556  and  _559
REMARK  226  A    between atoms: _559  and  _560
REMARK  227  A    between atoms: _560  and  _561
REMARK  228  A    between atoms: _561  and  _562
REMARK  229  A    between atoms: _571  and  _573
REMARK  230  A    between atoms: _573  and  _574
REMARK  231  A    between atoms: _573  and  _576
REMARK  232  A    between atoms: _576  and  _577
REMARK  233  A    between atoms: _580  and  _582
REMARK  234  A    between atoms: _582  and  _583
REMARK  235  A    between atoms: _585  and  _587
REMARK  236  A    between atoms: _587  and  _588
REMARK  237  A    between atoms: _587  and  _590
REMARK  238  A    between atoms: _590  and  _591
REMARK  239  A    between atoms: _591  and  _592
REMARK  240  A    between atoms: _592  and  _593
REMARK  241  A    between atoms: _602  and  _604
REMARK  242  A    between atoms: _604  and  _605
REMARK  243  A    between atoms: _604  and  _607
REMARK  244  A    between atoms: _607  and  _608
REMARK  245  A    between atoms: _608  and  _609
REMARK  246  A    between atoms: _609  and  _610
REMARK  247  A    between atoms: _610  and  _611
REMARK  248  A    between atoms: _615  and  _617
REMARK  249  A    between atoms: _617  and  _618
REMARK  250  A    between atoms: _617  and  _620
REMARK  251  A    between atoms: _620  and  _621
REMARK  252  A    between atoms: _627  and  _629
REMARK  253  A    between atoms: _629  and  _630
REMARK  254  A    between atoms: _633  and  _635
REMARK  255  A    between atoms: _635  and  _636
REMARK  256  A    between atoms: _635  and  _638
REMARK  257  A    between atoms: _638  and  _639
REMARK  258  A    between atoms: _642  and  _644
REMARK  259  A    between atoms: _644  and  _645
REMARK  260  A    between atoms: _644  and  _647
REMARK  261  A    between atoms: _647  and  _648
REMARK  262  A    between atoms: _650  and  _652
REMARK  263  A    between atoms: _652  and  _653
REMARK  264  A    between atoms: _652  and  _655
REMARK  265  A    between atoms: _655  and  _656
REMARK  266  A    between atoms: _656  and  _657
REMARK  267  A    between atoms: _662  and  _664
REMARK  268  A    between atoms: _664  and  _665
REMARK  269  A    between atoms: _664  and  _667
REMARK  270  A    between atoms: _667  and  _668
REMARK  271  A    between atoms: _670  and  _672
REMARK  272  A    between atoms: _672  and  _673
REMARK  273  A    between atoms: _672  and  _675
REMARK  274  A    between atoms: _675  and  _676
REMARK  275  A    between atoms: _679  and  _681
REMARK  276  A    between atoms: _681  and  _682
REMARK  277  A    between atoms: _684  and  _686
REMARK  278  A    between atoms: _686  and  _687
REMARK  279  A    between atoms: _686  and  _689
REMARK  280  A    between atoms: _689  and  _690
REMARK  281  A    between atoms: _693  and  _695
REMARK  282  A    between atoms: _695  and  _696
REMARK  283  A    between atoms: _695  and  _698
REMARK  284  A    between atoms: _701  and  _703
REMARK  285  A    between atoms: _703  and  _704
REMARK  286  A    between atoms: _706  and  _708
REMARK  287  A    between atoms: _708  and  _709
REMARK  288  A    between atoms: _712  and  _714
REMARK  289  A    between atoms: _714  and  _715
REMARK  290  A    between atoms: _714  and  _717
REMARK  291  A    between atoms: _720  and  _722
REMARK  292  A    between atoms: _722  and  _723
REMARK  293  A    between atoms: _722  and  _725
REMARK  294  A    between atoms: _725  and  _726
REMARK  295  A    between atoms: _726  and  _727
REMARK  296  A    between atoms: _729  and  _731
REMARK  297  A    between atoms: _731  and  _732
REMARK  298  A    between atoms: _731  and  _734
REMARK  299  A    between atoms: _734  and  _735
REMARK  300  A    between atoms: _735  and  _736
REMARK                            x       y       z     vdW  Elec       q    Type
REMARK                         _______ _______ _______ _____ _____    ______ ____
ROOT
ATOM      1  CA  THR A   5      44.710  -3.160  15.470  0.00  0.00    +0.176 C 
ENDROOT
BRANCH   1   2
ATOM      2  C   THR A   5      43.838  -4.212  16.139  0.00  0.00    +0.243 C 
ATOM      3  O   THR A   5      43.739  -4.300  17.361  0.00  0.00    -0.273 OA
ATOM      4  N   GLN A   6      43.173  -5.007  15.322  0.00  0.00    -0.297 N 
ATOM      5  H   GLN A   6      43.247  -4.872  14.293  0.00  0.00    +0.150 HD
BRANCH   4   6
ATOM      6  CA  GLN A   6      42.342  -6.065  15.852  0.00  0.00    +0.149 C 
BRANCH   6   7
ATOM      7  C   GLN A   6      42.777  -7.360  15.178  0.00  0.00    +0.241 C 
ATOM      8  N   GLY A   7      43.156  -8.351  15.974  0.00  0.00    -0.295 N 
ATOM      9  H   GLY A   7      43.147  -8.224  17.006  0.00  0.00    +0.150 HD
ATOM     10  O   GLN A   6      42.771  -7.459  13.952  0.00  0.00    -0.273 OA
BRANCH   8  11
ATOM     11  CA  GLY A   7      43.584  -9.616  15.397  0.00  0.00    +0.176 C 
BRANCH  11  12
ATOM     12  C   GLY A   7      45.046  -9.682  14.960  0.00  0.00    +0.243 C 
ATOM     13  N   LYS A   8      45.555 -10.888  14.788  0.00  0.00    -0.297 N 
ATOM     14  H   LYS A   8      44.968 -11.728  14.965  0.00  0.00    +0.150 HD
ATOM     15  O   GLY A   7      45.713  -8.674  14.781  0.00  0.00    -0.273 OA
BRANCH  13  16
ATOM     16  CA  LYS A   8      46.942 -11.048  14.350  0.00  0.00    +0.149 C 
BRANCH  16  17
ATOM     17  C   LYS A   8      47.085 -12.450  13.785  0.00  0.00    +0.241 C 
ATOM     18  O   LYS A   8      46.279 -13.329  14.080  0.00  0.00    -0.273 OA
ATOM     19  N   TRP A   9      48.071 -12.661  12.930  0.00  0.00    -0.298 N 
ATOM     20  H   TRP A   9      48.695 -11.884  12.633  0.00  0.00    +0.150 HD
BRANCH  19  21
ATOM     21  CA  TRP A   9      48.259 -13.997  12.419  0.00  0.00    +0.141 C 
BRANCH  21  22
ATOM     22  C   TRP A   9      49.720 -14.243  12.054  0.00  0.00    +0.227 C 
ATOM     23  O   TRP A   9      50.533 -13.326  11.963  0.00  0.00    -0.286 OA
ENDBRANCH  21  22
BRANCH  21  24
ATOM     24  CB  TRP A   9      47.308 -14.289  11.247  0.00  0.00    +0.056 C 
BRANCH  24  25
ATOM     25  CG  TRP A   9      47.389 -13.317  10.100  0.00  0.00    -0.002 A 
ATOM     26  CD1 TRP A   9      46.482 -12.327   9.784  0.00  0.00    +0.068 A 
ATOM     27  NE1 TRP A   9      46.915 -11.636   8.674  0.00  0.00    -0.352 N 
ATOM     28  CE2 TRP A   9      48.110 -12.163   8.246  0.00  0.00    +0.056 A 
ATOM     29  CZ2 TRP A   9      48.924 -11.796   7.167  0.00  0.00    +0.017 A 
ATOM     30  CH2 TRP A   9      50.078 -12.509   6.969  0.00  0.00    +0.001 A 
ATOM     31  CZ3 TRP A   9      50.438 -13.575   7.824  0.00  0.00    +0.000 A 
ATOM     32  CE3 TRP A   9      49.628 -13.937   8.896  0.00  0.00    +0.001 A 
ATOM     33  HE1 TRP A   9      46.416 -10.840   8.229  0.00  0.00    +0.166 HD
ATOM     34  CD2 TRP A   9      48.442 -13.225   9.118  0.00  0.00    +0.013 A 
ENDBRANCH  24  25
ENDBRANCH  21  24
ENDBRANCH  19  21
ENDBRANCH  16  17
BRANCH  16  35
ATOM     35  CB  LYS A   8      47.894 -10.885  15.529  0.00  0.00    +0.029 C 
BRANCH  35  36
ATOM     36  CG  LYS A   8      47.773 -12.036  16.525  0.00  0.00    +0.000 C 
BRANCH  36  37
ATOM     37  CD  LYS A   8      48.883 -12.020  17.577  0.00  0.00    -0.024 C 
BRANCH  37  38
ATOM     38  CE  LYS A   8      48.724 -10.842  18.530  0.00  0.00    -0.086 C 
BRANCH  38  39
ATOM     39  NZ  LYS A   8      49.495 -11.018  19.827  0.00  0.00    +0.380 N 
ATOM     40  HZ1 LYS A   8      49.347 -10.185  20.432  0.00  0.00    -0.089 HD
ATOM     41  HZ2 LYS A   8      49.155 -11.870  20.318  0.00  0.00    -0.089 HD
ATOM     42  HZ3 LYS A   8      50.508 -11.119  19.616  0.00  0.00    -0.089 HD
ENDBRANCH  38  39
ENDBRANCH  37  38
ENDBRANCH  36  37
ENDBRANCH  35  36
ENDBRANCH  16  35
ENDBRANCH  13  16
ENDBRANCH  11  12
ENDBRANCH   8  11
ENDBRANCH   6   7
BRANCH   6  43
ATOM     43  CB  GLN A   6      40.863  -5.788  15.572  0.00  0.00    +0.039 C 
BRANCH  43  44
ATOM     44  CG  GLN A   6      39.938  -6.932  15.993  0.00  0.00    +0.087 C 
BRANCH  44  45
ATOM     45  CD  GLN A   6      38.487  -6.642  15.644  0.00  0.00    +0.219 C 
ATOM     46  OE1 GLN A   6      37.867  -5.749  16.227  0.00  0.00    -0.275 OA
ATOM     47  NE2 GLN A   6      37.943  -7.384  14.681  0.00  0.00    -0.329 N 
ATOM     48 HE21 GLN A   6      36.957  -7.221  14.393  0.00  0.00    +0.145 HD
ATOM     49 HE22 GLN A   6      38.504  -8.126  14.217  0.00  0.00    +0.145 HD
ENDBRANCH  44  45
ENDBRANCH  43  44
ENDBRANCH   6  43
ENDBRANCH   4   6
ENDBRANCH   1   2
BRANCH   1  52
ATOM     50  C   TYR A   4      45.988  -4.918  14.454  0.00  0.00    +0.241 C 
ATOM     51  O   TYR A   4      46.250  -5.360  15.570  0.00  0.00    -0.273 OA
ATOM     52  N   THR A   5      45.269  -3.818  14.294  0.00  0.00    -0.295 N 
ATOM     53  H   THR A   5      45.105  -3.429  13.344  0.00  0.00    +0.150 HD
BRANCH  50  54
ATOM     54  CA  TYR A   4      46.498  -5.623  13.193  0.00  0.00    +0.153 C 
BRANCH  54  56
ATOM     55  C   PRO A   3      48.702  -6.654  13.432  0.00  0.00    +0.241 C 
ATOM     56  N   TYR A   4      47.385  -6.719  13.597  0.00  0.00    -0.297 N 
ATOM     57  H   TYR A   4      46.971  -7.572  14.025  0.00  0.00    +0.150 HD
ATOM     58  O   PRO A   3      49.266  -5.691  12.910  0.00  0.00    -0.273 OA
BRANCH  55  61
ATOM     59  C   VAL A   2      50.117  -9.330  12.044  0.00  0.00    +0.244 C 
ATOM     60  N   PRO A   3      50.385  -8.265  12.810  0.00  0.00    -0.272 N 
ATOM     61  CA  PRO A   3      49.517  -7.857  13.912  0.00  0.00    +0.152 C 
ATOM     62  CB  PRO A   3      50.514  -7.460  14.986  0.00  0.00    +0.031 C 
ATOM     63  CG  PRO A   3      51.541  -6.710  14.152  0.00  0.00    +0.024 C 
ATOM     64  CD  PRO A   3      51.703  -7.609  12.917  0.00  0.00    +0.094 C 
ATOM     65  O   VAL A   2      49.148 -10.051  12.235  0.00  0.00    -0.273 OA
BRANCH  59  66
ATOM     66  CA  VAL A   2      51.091  -9.634  10.933  0.00  0.00    +0.149 C 
BRANCH  66  68
ATOM     67  C   TYR A   1      53.166 -10.865  10.988  0.00  0.00    +0.239 C 
ATOM     68  N   VAL A   2      51.844 -10.855  11.158  0.00  0.00    -0.297 N 
ATOM     69  H   VAL A   2      51.351 -11.722  11.452  0.00  0.00    +0.150 HD
ATOM     70  O   TYR A   1      53.815  -9.871  10.656  0.00  0.00    -0.274 OA
BRANCH  67  71
ATOM     71  CA  TYR A   1      53.881 -12.168  11.247  0.00  0.00    +0.149 C 
BRANCH  71  72
ATOM     72  N   TYR A   1      54.732 -12.470  10.097  0.00  0.00    -0.238 NA
ATOM     73  H   TYR A   1      55.364 -11.724   9.742  0.00  0.00    +0.142 HD
ENDBRANCH  71  72
BRANCH  71  74
ATOM     74  CB  TYR A   1      54.762 -12.004  12.486  0.00  0.00    +0.053 C 
BRANCH  74  75
ATOM     75  CG  TYR A   1      54.073 -11.400  13.690  0.00  0.00    -0.020 A 
ATOM     76  CD2 TYR A   1      53.069 -12.095  14.363  0.00  0.00    -0.001 A 
ATOM     77  CE2 TYR A   1      52.468 -11.570  15.501  0.00  0.00    +0.036 A 
ATOM     78  CZ  TYR A   1      52.869 -10.332  15.976  0.00  0.00    +0.134 A 
ATOM     79  CE1 TYR A   1      53.859  -9.615  15.328  0.00  0.00    +0.036 A 
ATOM     80  CD1 TYR A   1      54.457 -10.150  14.188  0.00  0.00    -0.001 A 
BRANCH  78  81
ATOM     81  OH  TYR A   1      52.269  -9.821  17.106  0.00  0.00    -0.506 OA
ATOM     82  HH  TYR A   1      51.589 -10.461  17.436  0.00  0.00    +0.292 HD
ENDBRANCH  78  81
ENDBRANCH  74  75
ENDBRANCH  71  74
ENDBRANCH  67  71
ENDBRANCH  66  68
BRANCH  66  83
ATOM     83  CB  VAL A   2      50.304  -9.668   9.623  0.00  0.00    +0.027 C 
ATOM     84  CG2 VAL A   2      49.538  -8.357   9.459  0.00  0.00    +0.002 C 
ATOM     85  CG1 VAL A   2      51.263  -9.855   8.454  0.00  0.00    +0.002 C 
ENDBRANCH  66  83
ENDBRANCH  59  66
ENDBRANCH  55  61
ENDBRANCH  54  56
BRANCH  54  86
ATOM     86  CB  TYR A   4      45.292  -6.180  12.429  0.00  0.00    +0.055 C 
BRANCH  86  87
ATOM     87  CG  TYR A   4      45.604  -6.906  11.130  0.00  0.00    -0.020 A 
ATOM     88  CD2 TYR A   4      45.517  -8.298  11.056  0.00  0.00    -0.001 A 
ATOM     89  CE2 TYR A   4      45.788  -8.979   9.880  0.00  0.00    +0.036 A 
ATOM     90  CZ  TYR A   4      46.154  -8.279   8.746  0.00  0.00    +0.134 A 
ATOM     91  CE1 TYR A   4      46.244  -6.885   8.786  0.00  0.00    +0.036 A 
ATOM     92  CD1 TYR A   4      45.972  -6.209   9.974  0.00  0.00    -0.001 A 
BRANCH  90  93
ATOM     93  OH  TYR A   4      46.450  -8.983   7.581  0.00  0.00    -0.506 OA
ATOM     94  HH  TYR A   4      46.692  -8.345   6.864  0.00  0.00    +0.292 HD
ENDBRANCH  90  93
ENDBRANCH  86  87
ENDBRANCH  54  86
ENDBRANCH  50  54
ENDBRANCH   1  52
BRANCH   1  95
ATOM     95  CB  THR A   5      43.816  -1.984  15.086  0.00  0.00    +0.137 C 
ATOM     96  CG2 THR A   5      43.053  -1.483  16.317  0.00  0.00    +0.034 C 
BRANCH  95  97
ATOM     97  OG1 THR A   5      44.625  -0.942  14.530  0.00  0.00    -0.382 OA
ATOM     98  HG1 THR A   5      45.291  -0.649  15.201  0.00  0.00    +0.210 HD
ENDBRANCH  95  97
ENDBRANCH   1  95
TORSDOF 36
REMARK  Name = ../refined-set-2016/4gid/4gid_pocket.pdb
REMARK  300 active torsions:
REMARK  status: ('A' for Active; 'I' for Inactive)
REMARK    1  A    between atoms: _1  and  _3
REMARK    2  A    between atoms: _3  and  _4
REMARK    3  A    between atoms: _6  and  _8
REMARK    4  A    between atoms: _8  and  _9
REMARK    5  A    between atoms: _8  and  _11
REMARK    6  A    between atoms: _11  and  _12
REMARK    7  A    between atoms: _12  and  _13
REMARK    8  A    between atoms: _13  and  _14
REMARK    9  A    between atoms: _14  and  _15
REMARK   10  A    between atoms: _19  and  _21
REMARK   11  A    between atoms: _21  and  _22
REMARK   12  A    between atoms: _21  and  _24
REMARK   13  A    between atoms: _24  and  _25
REMARK   14  A    between atoms: _27  and  _29
REMARK   15  A    between atoms: _29  and  _30
REMARK   16  A    between atoms: _32  and  _34
REMARK   17  A    between atoms: _34  and  _35
REMARK   18  A    between atoms: _34  and  _37
REMARK   19  A    between atoms: _37  and  _38
REMARK   20  A    between atoms: _38  and  _39
REMARK   21  A    between atoms: _44  and  _46
REMARK   22  A    between atoms: _46  and  _47
REMARK   23  A    between atoms: _49  and  _51
REMARK   24  A    between atoms: _51  and  _52
REMARK   25  A    between atoms: _51  and  _54
REMARK   26  A    between atoms: _54  and  _55
REMARK   27  A    between atoms: _60  and  _61
REMARK   28  A    between atoms: _63  and  _65
REMARK   29  A    between atoms: _65  and  _66
REMARK   30  A    between atoms: _65  and  _68
REMARK   31  A    between atoms: _68  and  _69
REMARK   32  A    between atoms: _74  and  _75
REMARK   33  A    between atoms: _77  and  _79
REMARK   34  A    between atoms: _79  and  _80
REMARK   35  A    between atoms: _79  and  _82
REMARK   36  A    between atoms: _82  and  _83
REMARK   37  A    between atoms: _86  and  _88
REMARK   38  A    between atoms: _88  and  _89
REMARK   39  A    between atoms: _88  and  _91
REMARK   40  A    between atoms: _94  and  _96
REMARK   41  A    between atoms: _96  and  _97
REMARK   42  A    between atoms: _96  and  _99
REMARK   43  A    between atoms: _99  and  _100
REMARK   44  A    between atoms: _103  and  _105
REMARK   45  A    between atoms: _105  and  _106
REMARK   46  A    between atoms: _105  and  _108
REMARK   47  A    between atoms: _108  and  _109
REMARK   48  A    between atoms: _112  and  _114
REMARK   49  A    between atoms: _114  and  _115
REMARK   50  A    between atoms: _117  and  _119
REMARK   51  A    between atoms: _119  and  _120
REMARK   52  A    between atoms: _119  and  _122
REMARK   53  A    between atoms: _122  and  _123
REMARK   54  A    between atoms: _125  and  _127
REMARK   55  A    between atoms: _127  and  _128
REMARK   56  A    between atoms: _127  and  _130
REMARK   57  A    between atoms: _130  and  _131
REMARK   58  A    between atoms: _133  and  _135
REMARK   59  A    between atoms: _135  and  _136
REMARK   60  A    between atoms: _135  and  _138
REMARK   61  A    between atoms: _138  and  _139
REMARK   62  A    between atoms: _144  and  _146
REMARK   63  A    between atoms: _146  and  _147
REMARK   64  A    between atoms: _146  and  _149
REMARK   65  A    between atoms: _149  and  _150
REMARK   66  A    between atoms: _155  and  _156
REMARK   67  A    between atoms: _158  and  _160
REMARK   68  A    between atoms: _160  and  _161
REMARK   69  A    between atoms: _160  and  _163
REMARK   70  A    between atoms: _167  and  _168
REMARK   71  A    between atoms: _173  and  _175
REMARK   72  A    between atoms: _175  and  _176
REMARK   73  A    between atoms: _175  and  _178
REMARK   74  A    between atoms: _178  and  _179
REMARK   75  A    between atoms: _184  and  _185
REMARK   76  A    between atoms: _187  and  _189
REMARK   77  A    between atoms: _189  and  _190
REMARK   78  A    between atoms: _189  and  _192
REMARK   79  A    between atoms: _192  and  _193
REMARK   80  A    between atoms: _196  and  _198
REMARK   81  A    between atoms: _198  and  _199
REMARK   82  A    between atoms: _198  and  _201
REMARK   83  A    between atoms: _201  and  _202
REMARK   84  A    between atoms: _202  and  _203
REMARK   85  A    between atoms: _208  and  _210
REMARK   86  A    between atoms: _210  and  _211
REMARK   87  A    between atoms: _213  and  _215
REMARK   88  A    between atoms: _215  and  _216
REMARK   89  A    between atoms: _215  and  _218
REMARK   90  A    between atoms: _218  and  _219
REMARK   91  A    between atoms: _219  and  _220
REMARK   92  A    between atoms: _220  and  _221
REMARK   93  A    between atoms: _221  and  _222
REMARK   94  A    between atoms: _226  and  _228
REMARK   95  A    between atoms: _228  and  _229
REMARK   96  A    between atoms: _228  and  _231
REMARK   97  A    between atoms: _231  and  _232
REMARK   98  A    between atoms: _242  and  _244
REMARK   99  A    between atoms: _244  and  _245
REMARK  100  A    between atoms: _244  and  _247
REMARK  101  A    between atoms: _247  and  _248
REMARK  102  A    between atoms: _251  and  _253
REMARK  103  A    between atoms: _253  and  _254
REMARK  104  A    between atoms: _253  and  _256
REMARK  105  A    between atoms: _256  and  _257
REMARK  106  A    between atoms: _257  and  _258
REMARK  107  A    between atoms: _258  and  _259
REMARK  108  A    between atoms: _259  and  _260
REMARK  109  A    between atoms: _264  and  _266
REMARK  110  A    between atoms: _266  and  _267
REMARK  111  A    between atoms: _266  and  _269
REMARK  112  A    between atoms: _269  and  _270
REMARK  113  A    between atoms: _276  and  _278
REMARK  114  A    between atoms: _278  and  _279
REMARK  115  A    between atoms: _278  and  _281
REMARK  116  A    between atoms: _281  and  _282
REMARK  117  A    between atoms: _288  and  _290
REMARK  118  A    between atoms: _290  and  _291
REMARK  119  A    between atoms: _290  and  _293
REMARK  120  A    between atoms: _293  and  _294
REMARK  121  A    between atoms: _297  and  _299
REMARK  122  A    between atoms: _299  and  _300
REMARK  123  A    between atoms: _299  and  _302
REMARK  124  A    between atoms: _302  and  _303
REMARK  125  A    between atoms: _305  and  _307
REMARK  126  A    between atoms: _307  and  _308
REMARK  127  A    between atoms: _307  and  _310
REMARK  128  A    between atoms: _310  and  _311
REMARK  129  A    between atoms: _321  and  _323
REMARK  130  A    between atoms: _323  and  _324
REMARK  131  A    between atoms: _326  and  _328
REMARK  132  A    between atoms: _328  and  _329
REMARK  133  A    between atoms: _328  and  _331
REMARK  134  A    between atoms: _331  and  _332
REMARK  135  A    between atoms: _335  and  _337
REMARK  136  A    between atoms: _337  and  _338
REMARK  137  A    between atoms: _337  and  _340
REMARK  138  A    between atoms: _340  and  _341
REMARK  139  A    between atoms: _344  and  _346
REMARK  140  A    between atoms: _346  and  _347
REMARK  141  A    between atoms: _349  and  _351
REMARK  142  A    between atoms: _351  and  _352
REMARK  143  A    between atoms: _355  and  _357
REMARK  144  A    between atoms: _357  and  _358
REMARK  145  A    between atoms: _357  and  _360
REMARK  146  A    between atoms: _360  and  _361
REMARK  147  A    between atoms: _366  and  _367
REMARK  148  A    between atoms: _369  and  _371
REMARK  149  A    between atoms: _371  and  _372
REMARK  150  A    between atoms: _371  and  _374
REMARK  151  A    between atoms: _374  and  _375
REMARK  152  A    between atoms: _375  and  _376
REMARK  153  A    between atoms: _379  and  _381
REMARK  154  A    between atoms: _381  and  _382
REMARK  155  A    between atoms: _381  and  _384
REMARK  156  A    between atoms: _384  and  _385
REMARK  157  A    between atoms: _388  and  _390
REMARK  158  A    between atoms: _390  and  _391
REMARK  159  A    between atoms: _394  and  _396
REMARK  160  A    between atoms: _396  and  _397
REMARK  161  A    between atoms: _396  and  _399
REMARK  162  A    between atoms: _399  and  _400
REMARK  163  A    between atoms: _400  and  _401
REMARK  164  A    between atoms: _401  and  _402
REMARK  165  A    between atoms: _411  and  _413
REMARK  166  A    between atoms: _413  and  _414
REMARK  167  A    between atoms: _413  and  _416
REMARK  168  A    between atoms: _416  and  _417
REMARK  169  A    between atoms: _420  and  _422
REMARK  170  A    between atoms: _422  and  _423
REMARK  171  A    between atoms: _422  and  _425
REMARK  172  A    between atoms: _425  and  _426
REMARK  173  A    between atoms: _436  and  _438
REMARK  174  A    between atoms: _438  and  _439
REMARK  175  A    between atoms: _438  and  _441
REMARK  176  A    between atoms: _441  and  _442
REMARK  177  A    between atoms: _447  and  _448
REMARK  178  A    between atoms: _450  and  _452
REMARK  179  A    between atoms: _452  and  _453
REMARK  180  A    between atoms: _452  and  _455
REMARK  181  A    between atoms: _455  and  _456
REMARK  182  A    between atoms: _461  and  _462
REMARK  183  A    between atoms: _464  and  _466
REMARK  184  A    between atoms: _466  and  _467
REMARK  185  A    between atoms: _466  and  _469
REMARK  186  A    between atoms: _469  and  _470
REMARK  187  A    between atoms: _470  and  _471
REMARK  188  A    between atoms: _471  and  _472
REMARK  189  A    between atoms: _472  and  _473
REMARK  190  A    between atoms: _477  and  _479
REMARK  191  A    between atoms: _479  and  _480
REMARK  192  A    between atoms: _479  and  _482
REMARK  193  A    between atoms: _482  and  _483
REMARK  194  A    between atoms: _486  and  _488
REMARK  195  A    between atoms: _488  and  _489
REMARK  196  A    between atoms: _488  and  _491
REMARK  197  A    between atoms: _494  and  _496
REMARK  198  A    between atoms: _496  and  _497
REMARK  199  A    between atoms: _496  and  _499
REMARK  200  A    between atoms: _499  and  _500
REMARK  201  A    between atoms: _503  and  _505
REMARK  202  A    between atoms: _505  and  _506
REMARK  203  A    between atoms: _505  and  _508
REMARK  204  A    between atoms: _508  and  _509
REMARK  205  A    between atoms: _511  and  _513
REMARK  206  A    between atoms: _513  and  _514
REMARK  207  A    between atoms: _516  and  _518
REMARK  208  A    between atoms: _518  and  _519
REMARK  209  A    between atoms: _518  and  _521
REMARK  210  A    between atoms: _521  and  _522
REMARK  211  A    between atoms: _525  and  _527
REMARK  212  A    between atoms: _527  and  _528
REMARK  213  A    between atoms: _527  and  _530
REMARK  214  A    between atoms: _530  and  _531
REMARK  215  A    between atoms: _534  and  _536
REMARK  216  A    between atoms: _536  and  _537
REMARK  217  A    between atoms: _536  and  _539
REMARK  218  A    between atoms: _539  and  _540
REMARK  219  A    between atoms: _545  and  _547
REMARK  220  A    between atoms: _547  and  _548
REMARK  221  A    between atoms: _547  and  _550
REMARK  222  A    between atoms: _550  and  _551
REMARK  223  A    between atoms: _554  and  _556
REMARK  224  A    between atoms: _556  and  _557
REMARK  225  A    between atoms: _556  and  _559
REMARK  226  A    between atoms: _559  and  _560
REMARK  227  A    between atoms: _560  and  _561
REMARK  228  A    between atoms: _561  and  _562
REMARK  229  A    between atoms: _571  and  _573
REMARK  230  A    between atoms: _573  and  _574
REMARK  231  A    between atoms: _573  and  _576
REMARK  232  A    between atoms: _576  and  _577
REMARK  233  A    between atoms: _580  and  _582
REMARK  234  A    between atoms: _582  and  _583
REMARK  235  A    between atoms: _585  and  _587
REMARK  236  A    between atoms: _587  and  _588
REMARK  237  A    between atoms: _587  and  _590
REMARK  238  A    between atoms: _590  and  _591
REMARK  239  A    between atoms: _591  and  _592
REMARK  240  A    between atoms: _592  and  _593
REMARK  241  A    between atoms: _602  and  _604
REMARK  242  A    between atoms: _604  and  _605
REMARK  243  A    between atoms: _604  and  _607
REMARK  244  A    between atoms: _607  and  _608
REMARK  245  A    between atoms: _608  and  _609
REMARK  246  A    between atoms: _609  and  _610
REMARK  247  A    between atoms: _610  and  _611
REMARK  248  A    between atoms: _615  and  _617
REMARK  249  A    between atoms: _617  and  _618
REMARK  250  A    between atoms: _617  and  _620
REMARK  251  A    between atoms: _620  and  _621
REMARK  252  A    between atoms: _627  and  _629
REMARK  253  A    between atoms: _629  and  _630
REMARK  254  A    between atoms: _633  and  _635
REMARK  255  A    between atoms: _635  and  _636
REMARK  256  A    between atoms: _635  and  _638
REMARK  257  A    between atoms: _638  and  _639
REMARK  258  A    between atoms: _642  and  _644
REMARK  259  A    between atoms: _644  and  _645
REMARK  260  A    between atoms: _644  and  _647
REMARK  261  A    between atoms: _647  and  _648
REMARK  262  A    between atoms: _650  and  _652
REMARK  263  A    between atoms: _652  and  _653
REMARK  264  A    between atoms: _652  and  _655
REMARK  265  A    between atoms: _655  and  _656
REMARK  266  A    between atoms: _656  and  _657
REMARK  267  A    between atoms: _662  and  _664
REMARK  268  A    between atoms: _664  and  _665
REMARK  269  A    between atoms: _664  and  _667
REMARK  270  A    between atoms: _667  and  _668
REMARK  271  A    between atoms: _670  and  _672
REMARK  272  A    between atoms: _672  and  _673
REMARK  273  A    between atoms: _672  and  _675
REMARK  274  A    between atoms: _675  and  _676
REMARK  275  A    between atoms: _679  and  _681
REMARK  276  A    between atoms: _681  and  _682
REMARK  277  A    between atoms: _684  and  _686
REMARK  278  A    between atoms: _686  and  _687
REMARK  279  A    between atoms: _686  and  _689
REMARK  280  A    between atoms: _689  and  _690
REMARK  281  A    between atoms: _693  and  _695
REMARK  282  A    between atoms: _695  and  _696
REMARK  283  A    between atoms: _695  and  _698
REMARK  284  A    between atoms: _701  and  _703
REMARK  285  A    between atoms: _703  and  _704
REMARK  286  A    between atoms: _706  and  _708
REMARK  287  A    between atoms: _708  and  _709
REMARK  288  A    between atoms: _712  and  _714
REMARK  289  A    between atoms: _714  and  _715
REMARK  290  A    between atoms: _714  and  _717
REMARK  291  A    between atoms: _720  and  _722
REMARK  292  A    between atoms: _722  and  _723
REMARK  293  A    between atoms: _722  and  _725
REMARK  294  A    between atoms: _725  and  _726
REMARK  295  A    between atoms: _726  and  _727
REMARK  296  A    between atoms: _729  and  _731
REMARK  297  A    between atoms: _731  and  _732
REMARK  298  A    between atoms: _731  and  _734
REMARK  299  A    between atoms: _734  and  _735
REMARK  300  A    between atoms: _735  and  _736
REMARK                            x       y       z     vdW  Elec       q    Type
REMARK                         _______ _______ _______ _____ _____    ______ ____
ROOT
ATOM      1  CA  PHE A   3      41.574 -12.552  13.233  0.00  0.00    +0.153 C 
ENDROOT
BRANCH   1   4
ATOM      2  C   LYS A   2      41.113 -12.377  15.621  0.00  0.00    +0.241 C 
ATOM      3  O   LYS A   2      40.751 -11.198  15.532  0.00  0.00    -0.273 OA
ATOM      4  N   PHE A   3      41.536 -13.097  14.583  0.00  0.00    -0.297 N 
ATOM      5  H   PHE A   3      41.848 -14.076  14.741  0.00  0.00    +0.150 HD
BRANCH   2   6
ATOM      6  CA  LYS A   2      41.104 -13.094  16.970  0.00  0.00    +0.149 C 
BRANCH   6   8
ATOM      7  C   ASP A   1      43.413 -13.848  16.889  0.00  0.00    +0.239 C 
ATOM      8  N   LYS A   2      42.128 -14.131  17.066  0.00  0.00    -0.297 N 
ATOM      9  H   LYS A   2      41.845 -15.109  17.277  0.00  0.00    +0.150 HD
ATOM     10  O   ASP A   1      43.819 -12.725  16.593  0.00  0.00    -0.274 OA
BRANCH   7  11
ATOM     11  CA  ASP A   1      44.388 -15.005  17.067  0.00  0.00    +0.156 C 
BRANCH  11  12
ATOM     12  N   ASP A   1      45.066 -15.338  15.833  0.00  0.00    -0.238 NA
ATOM     13  H   ASP A   1      45.350 -14.579  15.181  0.00  0.00    +0.142 HD
ENDBRANCH  11  12
BRANCH  11  14
ATOM     14  CB  ASP A   1      45.408 -14.639  18.136  0.00  0.00    +0.140 C 
BRANCH  14  15
ATOM     15  CG  ASP A   1      44.756 -14.248  19.432  0.00  0.00    +0.367 C 
ATOM     16  OD2 ASP A   1      44.023 -15.079  19.998  0.00  0.00    -0.246 OA
ATOM     17  OD1 ASP A   1      44.978 -13.107  19.881  0.00  0.00    -0.246 OA
ENDBRANCH  14  15
ENDBRANCH  11  14
ENDBRANCH   7  11
ENDBRANCH   6   8
BRANCH   6  18
ATOM     18  CB  LYS A   2      41.292 -12.069  18.100  0.00  0.00    +0.029 C 
BRANCH  18  19
ATOM     19  CG  LYS A   2      41.078 -12.650  19.502  0.00  0.00    +0.000 C 
BRANCH  19  20
ATOM     20  CD  LYS A   2      41.432 -11.627  20.575  0.00  0.00    -0.024 C 
BRANCH  20  21
ATOM     21  CE  LYS A   2      41.147 -12.147  21.975  0.00  0.00    -0.086 C 
BRANCH  21  22
ATOM     22  NZ  LYS A   2      41.853 -11.282  22.980  0.00  0.00    +0.380 N 
ATOM     23  HZ1 LYS A   2      41.659 -11.637  23.938  0.00  0.00    -0.089 HD
ATOM     24  HZ2 LYS A   2      41.510 -10.304  22.895  0.00  0.00    -0.089 HD
ATOM     25  HZ3 LYS A   2      42.877 -11.309  22.800  0.00  0.00    -0.089 HD
ENDBRANCH  21  22
ENDBRANCH  20  21
ENDBRANCH  19  20
ENDBRANCH  18  19
ENDBRANCH   6  18
ENDBRANCH   2   6
ENDBRANCH   1   4
BRANCH   1  26
ATOM     26  C   PHE A   3      40.313 -12.975  12.483  0.00  0.00    +0.241 C 
ATOM     27  N   PHE A   4      40.157 -14.274  12.257  0.00  0.00    -0.297 N 
ATOM     28  H   PHE A   4      40.878 -14.944  12.594  0.00  0.00    +0.150 HD
ATOM     29  O   PHE A   3      39.501 -12.128  12.120  0.00  0.00    -0.273 OA
BRANCH  27  30
ATOM     30  CA  PHE A   4      38.990 -14.772  11.544  0.00  0.00    +0.153 C 
BRANCH  30  31
ATOM     31  C   PHE A   4      37.766 -14.557  12.408  0.00  0.00    +0.241 C 
ATOM     32  O   PHE A   4      37.846 -14.628  13.620  0.00  0.00    -0.273 OA
ATOM     33  N   ILE A   5      36.636 -14.305  11.765  0.00  0.00    -0.298 N 
ATOM     34  H   ILE A   5      36.641 -14.306  10.725  0.00  0.00    +0.150 HD
BRANCH  33  35
ATOM     35  CA  ILE A   5      35.390 -14.027  12.457  0.00  0.00    +0.137 C 
BRANCH  35  36
ATOM     36  CB  ILE A   5      34.841 -12.638  12.005  0.00  0.00    +0.026 C 
ATOM     37  CG2 ILE A   5      33.541 -12.296  12.725  0.00  0.00    +0.002 C 
BRANCH  36  38
ATOM     38  CG1 ILE A   5      35.916 -11.582  12.252  0.00  0.00    +0.002 C 
ATOM     39  CD1 ILE A   5      35.472 -10.143  12.020  0.00  0.00    +0.000 C 
ENDBRANCH  36  38
ENDBRANCH  35  36
BRANCH  35  40
ATOM     40  C   ILE A   5      34.404 -15.125  12.145  0.00  0.00    +0.227 C 
ATOM     41  O   ILE A   5      34.191 -15.473  10.988  0.00  0.00    -0.286 OA
ENDBRANCH  35  40
ENDBRANCH  33  35
ENDBRANCH  30  31
BRANCH  30  42
ATOM     42  CB  PHE A   4      39.141 -16.262  11.193  0.00  0.00    +0.055 C 
BRANCH  42  43
ATOM     43  CG  PHE A   4      40.295 -16.552  10.282  0.00  0.00    -0.020 A 
ATOM     44  CD2 PHE A   4      41.347 -17.362  10.701  0.00  0.00    -0.004 A 
ATOM     45  CE2 PHE A   4      42.435 -17.624   9.852  0.00  0.00    -0.000 A 
ATOM     46  CZ  PHE A   4      42.472 -17.068   8.573  0.00  0.00    -0.000 A 
ATOM     47  CE1 PHE A   4      41.425 -16.255   8.142  0.00  0.00    -0.000 A 
ATOM     48  CD1 PHE A   4      40.337 -15.999   8.998  0.00  0.00    -0.004 A 
ENDBRANCH  42  43
ENDBRANCH  30  42
ENDBRANCH  27  30
ENDBRANCH   1  26
BRANCH   1  49
ATOM     49  CB  PHE A   3      42.807 -13.047  12.480  0.00  0.00    +0.055 C 
BRANCH  49  50
ATOM     50  CG  PHE A   3      42.886 -12.558  11.056  0.00  0.00    -0.020 A 
ATOM     51  CD2 PHE A   3      42.908 -11.190  10.773  0.00  0.00    -0.004 A 
ATOM     52  CE2 PHE A   3      42.968 -10.732   9.454  0.00  0.00    -0.000 A 
ATOM     53  CZ  PHE A   3      43.013 -11.656   8.394  0.00  0.00    -0.000 A 
ATOM     54  CE1 PHE A   3      42.993 -13.029   8.672  0.00  0.00    -0.000 A 
ATOM     55  CD1 PHE A   3      42.929 -13.466  10.000  0.00  0.00    -0.004 A 
ENDBRANCH  49  50
ENDBRANCH   1  49
TORSDOF 23
REMARK  Name = ../refined-set-2016/4gid/4gid_pocket.pdb
REMARK  300 active torsions:
REMARK  status: ('A' for Active; 'I' for Inactive)
REMARK    1  A    between atoms: _1  and  _3
REMARK    2  A    between atoms: _3  and  _4
REMARK    3  A    between atoms: _6  and  _8
REMARK    4  A    between atoms: _8  and  _9
REMARK    5  A    between atoms: _8  and  _11
REMARK    6  A    between atoms: _11  and  _12
REMARK    7  A    between atoms: _12  and  _13
REMARK    8  A    between atoms: _13  and  _14
REMARK    9  A    between atoms: _14  and  _15
REMARK   10  A    between atoms: _19  and  _21
REMARK   11  A    between atoms: _21  and  _22
REMARK   12  A    between atoms: _21  and  _24
REMARK   13  A    between atoms: _24  and  _25
REMARK   14  A    between atoms: _27  and  _29
REMARK   15  A    between atoms: _29  and  _30
REMARK   16  A    between atoms: _32  and  _34
REMARK   17  A    between atoms: _34  and  _35
REMARK   18  A    between atoms: _34  and  _37
REMARK   19  A    between atoms: _37  and  _38
REMARK   20  A    between atoms: _38  and  _39
REMARK   21  A    between atoms: _44  and  _46
REMARK   22  A    between atoms: _46  and  _47
REMARK   23  A    between atoms: _49  and  _51
REMARK   24  A    between atoms: _51  and  _52
REMARK   25  A    between atoms: _51  and  _54
REMARK   26  A    between atoms: _54  and  _55
REMARK   27  A    between atoms: _60  and  _61
REMARK   28  A    between atoms: _63  and  _65
REMARK   29  A    between atoms: _65  and  _66
REMARK   30  A    between atoms: _65  and  _68
REMARK   31  A    between atoms: _68  and  _69
REMARK   32  A    between atoms: _74  and  _75
REMARK   33  A    between atoms: _77  and  _79
REMARK   34  A    between atoms: _79  and  _80
REMARK   35  A    between atoms: _79  and  _82
REMARK   36  A    between atoms: _82  and  _83
REMARK   37  A    between atoms: _86  and  _88
REMARK   38  A    between atoms: _88  and  _89
REMARK   39  A    between atoms: _88  and  _91
REMARK   40  A    between atoms: _94  and  _96
REMARK   41  A    between atoms: _96  and  _97
REMARK   42  A    between atoms: _96  and  _99
REMARK   43  A    between atoms: _99  and  _100
REMARK   44  A    between atoms: _103  and  _105
REMARK   45  A    between atoms: _105  and  _106
REMARK   46  A    between atoms: _105  and  _108
REMARK   47  A    between atoms: _108  and  _109
REMARK   48  A    between atoms: _112  and  _114
REMARK   49  A    between atoms: _114  and  _115
REMARK   50  A    between atoms: _117  and  _119
REMARK   51  A    between atoms: _119  and  _120
REMARK   52  A    between atoms: _119  and  _122
REMARK   53  A    between atoms: _122  and  _123
REMARK   54  A    between atoms: _125  and  _127
REMARK   55  A    between atoms: _127  and  _128
REMARK   56  A    between atoms: _127  and  _130
REMARK   57  A    between atoms: _130  and  _131
REMARK   58  A    between atoms: _133  and  _135
REMARK   59  A    between atoms: _135  and  _136
REMARK   60  A    between atoms: _135  and  _138
REMARK   61  A    between atoms: _138  and  _139
REMARK   62  A    between atoms: _144  and  _146
REMARK   63  A    between atoms: _146  and  _147
REMARK   64  A    between atoms: _146  and  _149
REMARK   65  A    between atoms: _149  and  _150
REMARK   66  A    between atoms: _155  and  _156
REMARK   67  A    between atoms: _158  and  _160
REMARK   68  A    between atoms: _160  and  _161
REMARK   69  A    between atoms: _160  and  _163
REMARK   70  A    between atoms: _167  and  _168
REMARK   71  A    between atoms: _173  and  _175
REMARK   72  A    between atoms: _175  and  _176
REMARK   73  A    between atoms: _175  and  _178
REMARK   74  A    between atoms: _178  and  _179
REMARK   75  A    between atoms: _184  and  _185
REMARK   76  A    between atoms: _187  and  _189
REMARK   77  A    between atoms: _189  and  _190
REMARK   78  A    between atoms: _189  and  _192
REMARK   79  A    between atoms: _192  and  _193
REMARK   80  A    between atoms: _196  and  _198
REMARK   81  A    between atoms: _198  and  _199
REMARK   82  A    between atoms: _198  and  _201
REMARK   83  A    between atoms: _201  and  _202
REMARK   84  A    between atoms: _202  and  _203
REMARK   85  A    between atoms: _208  and  _210
REMARK   86  A    between atoms: _210  and  _211
REMARK   87  A    between atoms: _213  and  _215
REMARK   88  A    between atoms: _215  and  _216
REMARK   89  A    between atoms: _215  and  _218
REMARK   90  A    between atoms: _218  and  _219
REMARK   91  A    between atoms: _219  and  _220
REMARK   92  A    between atoms: _220  and  _221
REMARK   93  A    between atoms: _221  and  _222
REMARK   94  A    between atoms: _226  and  _228
REMARK   95  A    between atoms: _228  and  _229
REMARK   96  A    between atoms: _228  and  _231
REMARK   97  A    between atoms: _231  and  _232
REMARK   98  A    between atoms: _242  and  _244
REMARK   99  A    between atoms: _244  and  _245
REMARK  100  A    between atoms: _244  and  _247
REMARK  101  A    between atoms: _247  and  _248
REMARK  102  A    between atoms: _251  and  _253
REMARK  103  A    between atoms: _253  and  _254
REMARK  104  A    between atoms: _253  and  _256
REMARK  105  A    between atoms: _256  and  _257
REMARK  106  A    between atoms: _257  and  _258
REMARK  107  A    between atoms: _258  and  _259
REMARK  108  A    between atoms: _259  and  _260
REMARK  109  A    between atoms: _264  and  _266
REMARK  110  A    between atoms: _266  and  _267
REMARK  111  A    between atoms: _266  and  _269
REMARK  112  A    between atoms: _269  and  _270
REMARK  113  A    between atoms: _276  and  _278
REMARK  114  A    between atoms: _278  and  _279
REMARK  115  A    between atoms: _278  and  _281
REMARK  116  A    between atoms: _281  and  _282
REMARK  117  A    between atoms: _288  and  _290
REMARK  118  A    between atoms: _290  and  _291
REMARK  119  A    between atoms: _290  and  _293
REMARK  120  A    between atoms: _293  and  _294
REMARK  121  A    between atoms: _297  and  _299
REMARK  122  A    between atoms: _299  and  _300
REMARK  123  A    between atoms: _299  and  _302
REMARK  124  A    between atoms: _302  and  _303
REMARK  125  A    between atoms: _305  and  _307
REMARK  126  A    between atoms: _307  and  _308
REMARK  127  A    between atoms: _307  and  _310
REMARK  128  A    between atoms: _310  and  _311
REMARK  129  A    between atoms: _321  and  _323
REMARK  130  A    between atoms: _323  and  _324
REMARK  131  A    between atoms: _326  and  _328
REMARK  132  A    between atoms: _328  and  _329
REMARK  133  A    between atoms: _328  and  _331
REMARK  134  A    between atoms: _331  and  _332
REMARK  135  A    between atoms: _335  and  _337
REMARK  136  A    between atoms: _337  and  _338
REMARK  137  A    between atoms: _337  and  _340
REMARK  138  A    between atoms: _340  and  _341
REMARK  139  A    between atoms: _344  and  _346
REMARK  140  A    between atoms: _346  and  _347
REMARK  141  A    between atoms: _349  and  _351
REMARK  142  A    between atoms: _351  and  _352
REMARK  143  A    between atoms: _355  and  _357
REMARK  144  A    between atoms: _357  and  _358
REMARK  145  A    between atoms: _357  and  _360
REMARK  146  A    between atoms: _360  and  _361
REMARK  147  A    between atoms: _366  and  _367
REMARK  148  A    between atoms: _369  and  _371
REMARK  149  A    between atoms: _371  and  _372
REMARK  150  A    between atoms: _371  and  _374
REMARK  151  A    between atoms: _374  and  _375
REMARK  152  A    between atoms: _375  and  _376
REMARK  153  A    between atoms: _379  and  _381
REMARK  154  A    between atoms: _381  and  _382
REMARK  155  A    between atoms: _381  and  _384
REMARK  156  A    between atoms: _384  and  _385
REMARK  157  A    between atoms: _388  and  _390
REMARK  158  A    between atoms: _390  and  _391
REMARK  159  A    between atoms: _394  and  _396
REMARK  160  A    between atoms: _396  and  _397
REMARK  161  A    between atoms: _396  and  _399
REMARK  162  A    between atoms: _399  and  _400
REMARK  163  A    between atoms: _400  and  _401
REMARK  164  A    between atoms: _401  and  _402
REMARK  165  A    between atoms: _411  and  _413
REMARK  166  A    between atoms: _413  and  _414
REMARK  167  A    between atoms: _413  and  _416
REMARK  168  A    between atoms: _416  and  _417
REMARK  169  A    between atoms: _420  and  _422
REMARK  170  A    between atoms: _422  and  _423
REMARK  171  A    between atoms: _422  and  _425
REMARK  172  A    between atoms: _425  and  _426
REMARK  173  A    between atoms: _436  and  _438
REMARK  174  A    between atoms: _438  and  _439
REMARK  175  A    between atoms: _438  and  _441
REMARK  176  A    between atoms: _441  and  _442
REMARK  177  A    between atoms: _447  and  _448
REMARK  178  A    between atoms: _450  and  _452
REMARK  179  A    between atoms: _452  and  _453
REMARK  180  A    between atoms: _452  and  _455
REMARK  181  A    between atoms: _455  and  _456
REMARK  182  A    between atoms: _461  and  _462
REMARK  183  A    between atoms: _464  and  _466
REMARK  184  A    between atoms: _466  and  _467
REMARK  185  A    between atoms: _466  and  _469
REMARK  186  A    between atoms: _469  and  _470
REMARK  187  A    between atoms: _470  and  _471
REMARK  188  A    between atoms: _471  and  _472
REMARK  189  A    between atoms: _472  and  _473
REMARK  190  A    between atoms: _477  and  _479
REMARK  191  A    between atoms: _479  and  _480
REMARK  192  A    between atoms: _479  and  _482
REMARK  193  A    between atoms: _482  and  _483
REMARK  194  A    between atoms: _486  and  _488
REMARK  195  A    between atoms: _488  and  _489
REMARK  196  A    between atoms: _488  and  _491
REMARK  197  A    between atoms: _494  and  _496
REMARK  198  A    between atoms: _496  and  _497
REMARK  199  A    between atoms: _496  and  _499
REMARK  200  A    between atoms: _499  and  _500
REMARK  201  A    between atoms: _503  and  _505
REMARK  202  A    between atoms: _505  and  _506
REMARK  203  A    between atoms: _505  and  _508
REMARK  204  A    between atoms: _508  and  _509
REMARK  205  A    between atoms: _511  and  _513
REMARK  206  A    between atoms: _513  and  _514
REMARK  207  A    between atoms: _516  and  _518
REMARK  208  A    between atoms: _518  and  _519
REMARK  209  A    between atoms: _518  and  _521
REMARK  210  A    between atoms: _521  and  _522
REMARK  211  A    between atoms: _525  and  _527
REMARK  212  A    between atoms: _527  and  _528
REMARK  213  A    between atoms: _527  and  _530
REMARK  214  A    between atoms: _530  and  _531
REMARK  215  A    between atoms: _534  and  _536
REMARK  216  A    between atoms: _536  and  _537
REMARK  217  A    between atoms: _536  and  _539
REMARK  218  A    between atoms: _539  and  _540
REMARK  219  A    between atoms: _545  and  _547
REMARK  220  A    between atoms: _547  and  _548
REMARK  221  A    between atoms: _547  and  _550
REMARK  222  A    between atoms: _550  and  _551
REMARK  223  A    between atoms: _554  and  _556
REMARK  224  A    between atoms: _556  and  _557
REMARK  225  A    between atoms: _556  and  _559
REMARK  226  A    between atoms: _559  and  _560
REMARK  227  A    between atoms: _560  and  _561
REMARK  228  A    between atoms: _561  and  _562
REMARK  229  A    between atoms: _571  and  _573
REMARK  230  A    between atoms: _573  and  _574
REMARK  231  A    between atoms: _573  and  _576
REMARK  232  A    between atoms: _576  and  _577
REMARK  233  A    between atoms: _580  and  _582
REMARK  234  A    between atoms: _582  and  _583
REMARK  235  A    between atoms: _585  and  _587
REMARK  236  A    between atoms: _587  and  _588
REMARK  237  A    between atoms: _587  and  _590
REMARK  238  A    between atoms: _590  and  _591
REMARK  239  A    between atoms: _591  and  _592
REMARK  240  A    between atoms: _592  and  _593
REMARK  241  A    between atoms: _602  and  _604
REMARK  242  A    between atoms: _604  and  _605
REMARK  243  A    between atoms: _604  and  _607
REMARK  244  A    between atoms: _607  and  _608
REMARK  245  A    between atoms: _608  and  _609
REMARK  246  A    between atoms: _609  and  _610
REMARK  247  A    between atoms: _610  and  _611
REMARK  248  A    between atoms: _615  and  _617
REMARK  249  A    between atoms: _617  and  _618
REMARK  250  A    between atoms: _617  and  _620
REMARK  251  A    between atoms: _620  and  _621
REMARK  252  A    between atoms: _627  and  _629
REMARK  253  A    between atoms: _629  and  _630
REMARK  254  A    between atoms: _633  and  _635
REMARK  255  A    between atoms: _635  and  _636
REMARK  256  A    between atoms: _635  and  _638
REMARK  257  A    between atoms: _638  and  _639
REMARK  258  A    between atoms: _642  and  _644
REMARK  259  A    between atoms: _644  and  _645
REMARK  260  A    between atoms: _644  and  _647
REMARK  261  A    between atoms: _647  and  _648
REMARK  262  A    between atoms: _650  and  _652
REMARK  263  A    between atoms: _652  and  _653
REMARK  264  A    between atoms: _652  and  _655
REMARK  265  A    between atoms: _655  and  _656
REMARK  266  A    between atoms: _656  and  _657
REMARK  267  A    between atoms: _662  and  _664
REMARK  268  A    between atoms: _664  and  _665
REMARK  269  A    between atoms: _664  and  _667
REMARK  270  A    between atoms: _667  and  _668
REMARK  271  A    between atoms: _670  and  _672
REMARK  272  A    between atoms: _672  and  _673
REMARK  273  A    between atoms: _672  and  _675
REMARK  274  A    between atoms: _675  and  _676
REMARK  275  A    between atoms: _679  and  _681
REMARK  276  A    between atoms: _681  and  _682
REMARK  277  A    between atoms: _684  and  _686
REMARK  278  A    between atoms: _686  and  _687
REMARK  279  A    between atoms: _686  and  _689
REMARK  280  A    between atoms: _689  and  _690
REMARK  281  A    between atoms: _693  and  _695
REMARK  282  A    between atoms: _695  and  _696
REMARK  283  A    between atoms: _695  and  _698
REMARK  284  A    between atoms: _701  and  _703
REMARK  285  A    between atoms: _703  and  _704
REMARK  286  A    between atoms: _706  and  _708
REMARK  287  A    between atoms: _708  and  _709
REMARK  288  A    between atoms: _712  and  _714
REMARK  289  A    between atoms: _714  and  _715
REMARK  290  A    between atoms: _714  and  _717
REMARK  291  A    between atoms: _720  and  _722
REMARK  292  A    between atoms: _722  and  _723
REMARK  293  A    between atoms: _722  and  _725
REMARK  294  A    between atoms: _725  and  _726
REMARK  295  A    between atoms: _726  and  _727
REMARK  296  A    between atoms: _729  and  _731
REMARK  297  A    between atoms: _731  and  _732
REMARK  298  A    between atoms: _731  and  _734
REMARK  299  A    between atoms: _734  and  _735
REMARK  300  A    between atoms: _735  and  _736
REMARK                            x       y       z     vdW  Elec       q    Type
REMARK                         _______ _______ _______ _____ _____    ______ ____
ROOT
ATOM      1  CA  SER A   1      31.846 -14.015   8.273  0.00  0.00    +0.163 C 
ENDROOT
BRANCH   1   2
ATOM      2  N   SER A   1      31.523 -15.085   9.227  0.00  0.00    -0.237 NA
ATOM      3  H   SER A   1      32.284 -15.470   9.823  0.00  0.00    +0.142 HD
ENDBRANCH   1   2
BRANCH   1   4
ATOM      4  C   SER A   1      31.857 -14.431   6.792  0.00  0.00    +0.227 C 
ATOM      5  O   SER A   1      31.628 -13.603   5.891  0.00  0.00    -0.287 OA
ENDBRANCH   1   4
BRANCH   1   6
ATOM      6  CB  SER A   1      33.217 -13.458   8.594  0.00  0.00    +0.162 C 
BRANCH   6   7
ATOM      7  OG  SER A   1      34.200 -14.416   8.242  0.00  0.00    -0.380 OA
ATOM      8  H   SER A   1      35.099 -14.057   8.450  0.00  0.00    +0.211 HD
ENDBRANCH   6   7
ENDBRANCH   1   6
TORSDOF 4
REMARK  Name = ../refined-set-2016/4gid/4gid_pocket.pdb
REMARK  300 active torsions:
REMARK  status: ('A' for Active; 'I' for Inactive)
REMARK    1  A    between atoms: _1  and  _3
REMARK    2  A    between atoms: _3  and  _4
REMARK    3  A    between atoms: _6  and  _8
REMARK    4  A    between atoms: _8  and  _9
REMARK    5  A    between atoms: _8  and  _11
REMARK    6  A    between atoms: _11  and  _12
REMARK    7  A    between atoms: _12  and  _13
REMARK    8  A    between atoms: _13  and  _14
REMARK    9  A    between atoms: _14  and  _15
REMARK   10  A    between atoms: _19  and  _21
REMARK   11  A    between atoms: _21  and  _22
REMARK   12  A    between atoms: _21  and  _24
REMARK   13  A    between atoms: _24  and  _25
REMARK   14  A    between atoms: _27  and  _29
REMARK   15  A    between atoms: _29  and  _30
REMARK   16  A    between atoms: _32  and  _34
REMARK   17  A    between atoms: _34  and  _35
REMARK   18  A    between atoms: _34  and  _37
REMARK   19  A    between atoms: _37  and  _38
REMARK   20  A    between atoms: _38  and  _39
REMARK   21  A    between atoms: _44  and  _46
REMARK   22  A    between atoms: _46  and  _47
REMARK   23  A    between atoms: _49  and  _51
REMARK   24  A    between atoms: _51  and  _52
REMARK   25  A    between atoms: _51  and  _54
REMARK   26  A    between atoms: _54  and  _55
REMARK   27  A    between atoms: _60  and  _61
REMARK   28  A    between atoms: _63  and  _65
REMARK   29  A    between atoms: _65  and  _66
REMARK   30  A    between atoms: _65  and  _68
REMARK   31  A    between atoms: _68  and  _69
REMARK   32  A    between atoms: _74  and  _75
REMARK   33  A    between atoms: _77  and  _79
REMARK   34  A    between atoms: _79  and  _80
REMARK   35  A    between atoms: _79  and  _82
REMARK   36  A    between atoms: _82  and  _83
REMARK   37  A    between atoms: _86  and  _88
REMARK   38  A    between atoms: _88  and  _89
REMARK   39  A    between atoms: _88  and  _91
REMARK   40  A    between atoms: _94  and  _96
REMARK   41  A    between atoms: _96  and  _97
REMARK   42  A    between atoms: _96  and  _99
REMARK   43  A    between atoms: _99  and  _100
REMARK   44  A    between atoms: _103  and  _105
REMARK   45  A    between atoms: _105  and  _106
REMARK   46  A    between atoms: _105  and  _108
REMARK   47  A    between atoms: _108  and  _109
REMARK   48  A    between atoms: _112  and  _114
REMARK   49  A    between atoms: _114  and  _115
REMARK   50  A    between atoms: _117  and  _119
REMARK   51  A    between atoms: _119  and  _120
REMARK   52  A    between atoms: _119  and  _122
REMARK   53  A    between atoms: _122  and  _123
REMARK   54  A    between atoms: _125  and  _127
REMARK   55  A    between atoms: _127  and  _128
REMARK   56  A    between atoms: _127  and  _130
REMARK   57  A    between atoms: _130  and  _131
REMARK   58  A    between atoms: _133  and  _135
REMARK   59  A    between atoms: _135  and  _136
REMARK   60  A    between atoms: _135  and  _138
REMARK   61  A    between atoms: _138  and  _139
REMARK   62  A    between atoms: _144  and  _146
REMARK   63  A    between atoms: _146  and  _147
REMARK   64  A    between atoms: _146  and  _149
REMARK   65  A    between atoms: _149  and  _150
REMARK   66  A    between atoms: _155  and  _156
REMARK   67  A    between atoms: _158  and  _160
REMARK   68  A    between atoms: _160  and  _161
REMARK   69  A    between atoms: _160  and  _163
REMARK   70  A    between atoms: _167  and  _168
REMARK   71  A    between atoms: _173  and  _175
REMARK   72  A    between atoms: _175  and  _176
REMARK   73  A    between atoms: _175  and  _178
REMARK   74  A    between atoms: _178  and  _179
REMARK   75  A    between atoms: _184  and  _185
REMARK   76  A    between atoms: _187  and  _189
REMARK   77  A    between atoms: _189  and  _190
REMARK   78  A    between atoms: _189  and  _192
REMARK   79  A    between atoms: _192  and  _193
REMARK   80  A    between atoms: _196  and  _198
REMARK   81  A    between atoms: _198  and  _199
REMARK   82  A    between atoms: _198  and  _201
REMARK   83  A    between atoms: _201  and  _202
REMARK   84  A    between atoms: _202  and  _203
REMARK   85  A    between atoms: _208  and  _210
REMARK   86  A    between atoms: _210  and  _211
REMARK   87  A    between atoms: _213  and  _215
REMARK   88  A    between atoms: _215  and  _216
REMARK   89  A    between atoms: _215  and  _218
REMARK   90  A    between atoms: _218  and  _219
REMARK   91  A    between atoms: _219  and  _220
REMARK   92  A    between atoms: _220  and  _221
REMARK   93  A    between atoms: _221  and  _222
REMARK   94  A    between atoms: _226  and  _228
REMARK   95  A    between atoms: _228  and  _229
REMARK   96  A    between atoms: _228  and  _231
REMARK   97  A    between atoms: _231  and  _232
REMARK   98  A    between atoms: _242  and  _244
REMARK   99  A    between atoms: _244  and  _245
REMARK  100  A    between atoms: _244  and  _247
REMARK  101  A    between atoms: _247  and  _248
REMARK  102  A    between atoms: _251  and  _253
REMARK  103  A    between atoms: _253  and  _254
REMARK  104  A    between atoms: _253  and  _256
REMARK  105  A    between atoms: _256  and  _257
REMARK  106  A    between atoms: _257  and  _258
REMARK  107  A    between atoms: _258  and  _259
REMARK  108  A    between atoms: _259  and  _260
REMARK  109  A    between atoms: _264  and  _266
REMARK  110  A    between atoms: _266  and  _267
REMARK  111  A    between atoms: _266  and  _269
REMARK  112  A    between atoms: _269  and  _270
REMARK  113  A    between atoms: _276  and  _278
REMARK  114  A    between atoms: _278  and  _279
REMARK  115  A    between atoms: _278  and  _281
REMARK  116  A    between atoms: _281  and  _282
REMARK  117  A    between atoms: _288  and  _290
REMARK  118  A    between atoms: _290  and  _291
REMARK  119  A    between atoms: _290  and  _293
REMARK  120  A    between atoms: _293  and  _294
REMARK  121  A    between atoms: _297  and  _299
REMARK  122  A    between atoms: _299  and  _300
REMARK  123  A    between atoms: _299  and  _302
REMARK  124  A    between atoms: _302  and  _303
REMARK  125  A    between atoms: _305  and  _307
REMARK  126  A    between atoms: _307  and  _308
REMARK  127  A    between atoms: _307  and  _310
REMARK  128  A    between atoms: _310  and  _311
REMARK  129  A    between atoms: _321  and  _323
REMARK  130  A    between atoms: _323  and  _324
REMARK  131  A    between atoms: _326  and  _328
REMARK  132  A    between atoms: _328  and  _329
REMARK  133  A    between atoms: _328  and  _331
REMARK  134  A    between atoms: _331  and  _332
REMARK  135  A    between atoms: _335  and  _337
REMARK  136  A    between atoms: _337  and  _338
REMARK  137  A    between atoms: _337  and  _340
REMARK  138  A    between atoms: _340  and  _341
REMARK  139  A    between atoms: _344  and  _346
REMARK  140  A    between atoms: _346  and  _347
REMARK  141  A    between atoms: _349  and  _351
REMARK  142  A    between atoms: _351  and  _352
REMARK  143  A    between atoms: _355  and  _357
REMARK  144  A    between atoms: _357  and  _358
REMARK  145  A    between atoms: _357  and  _360
REMARK  146  A    between atoms: _360  and  _361
REMARK  147  A    between atoms: _366  and  _367
REMARK  148  A    between atoms: _369  and  _371
REMARK  149  A    between atoms: _371  and  _372
REMARK  150  A    between atoms: _371  and  _374
REMARK  151  A    between atoms: _374  and  _375
REMARK  152  A    between atoms: _375  and  _376
REMARK  153  A    between atoms: _379  and  _381
REMARK  154  A    between atoms: _381  and  _382
REMARK  155  A    between atoms: _381  and  _384
REMARK  156  A    between atoms: _384  and  _385
REMARK  157  A    between atoms: _388  and  _390
REMARK  158  A    between atoms: _390  and  _391
REMARK  159  A    between atoms: _394  and  _396
REMARK  160  A    between atoms: _396  and  _397
REMARK  161  A    between atoms: _396  and  _399
REMARK  162  A    between atoms: _399  and  _400
REMARK  163  A    between atoms: _400  and  _401
REMARK  164  A    between atoms: _401  and  _402
REMARK  165  A    between atoms: _411  and  _413
REMARK  166  A    between atoms: _413  and  _414
REMARK  167  A    between atoms: _413  and  _416
REMARK  168  A    between atoms: _416  and  _417
REMARK  169  A    between atoms: _420  and  _422
REMARK  170  A    between atoms: _422  and  _423
REMARK  171  A    between atoms: _422  and  _425
REMARK  172  A    between atoms: _425  and  _426
REMARK  173  A    between atoms: _436  and  _438
REMARK  174  A    between atoms: _438  and  _439
REMARK  175  A    between atoms: _438  and  _441
REMARK  176  A    between atoms: _441  and  _442
REMARK  177  A    between atoms: _447  and  _448
REMARK  178  A    between atoms: _450  and  _452
REMARK  179  A    between atoms: _452  and  _453
REMARK  180  A    between atoms: _452  and  _455
REMARK  181  A    between atoms: _455  and  _456
REMARK  182  A    between atoms: _461  and  _462
REMARK  183  A    between atoms: _464  and  _466
REMARK  184  A    between atoms: _466  and  _467
REMARK  185  A    between atoms: _466  and  _469
REMARK  186  A    between atoms: _469  and  _470
REMARK  187  A    between atoms: _470  and  _471
REMARK  188  A    between atoms: _471  and  _472
REMARK  189  A    between atoms: _472  and  _473
REMARK  190  A    between atoms: _477  and  _479
REMARK  191  A    between atoms: _479  and  _480
REMARK  192  A    between atoms: _479  and  _482
REMARK  193  A    between atoms: _482  and  _483
REMARK  194  A    between atoms: _486  and  _488
REMARK  195  A    between atoms: _488  and  _489
REMARK  196  A    between atoms: _488  and  _491
REMARK  197  A    between atoms: _494  and  _496
REMARK  198  A    between atoms: _496  and  _497
REMARK  199  A    between atoms: _496  and  _499
REMARK  200  A    between atoms: _499  and  _500
REMARK  201  A    between atoms: _503  and  _505
REMARK  202  A    between atoms: _505  and  _506
REMARK  203  A    between atoms: _505  and  _508
REMARK  204  A    between atoms: _508  and  _509
REMARK  205  A    between atoms: _511  and  _513
REMARK  206  A    between atoms: _513  and  _514
REMARK  207  A    between atoms: _516  and  _518
REMARK  208  A    between atoms: _518  and  _519
REMARK  209  A    between atoms: _518  and  _521
REMARK  210  A    between atoms: _521  and  _522
REMARK  211  A    between atoms: _525  and  _527
REMARK  212  A    between atoms: _527  and  _528
REMARK  213  A    between atoms: _527  and  _530
REMARK  214  A    between atoms: _530  and  _531
REMARK  215  A    between atoms: _534  and  _536
REMARK  216  A    between atoms: _536  and  _537
REMARK  217  A    between atoms: _536  and  _539
REMARK  218  A    between atoms: _539  and  _540
REMARK  219  A    between atoms: _545  and  _547
REMARK  220  A    between atoms: _547  and  _548
REMARK  221  A    between atoms: _547  and  _550
REMARK  222  A    between atoms: _550  and  _551
REMARK  223  A    between atoms: _554  and  _556
REMARK  224  A    between atoms: _556  and  _557
REMARK  225  A    between atoms: _556  and  _559
REMARK  226  A    between atoms: _559  and  _560
REMARK  227  A    between atoms: _560  and  _561
REMARK  228  A    between atoms: _561  and  _562
REMARK  229  A    between atoms: _571  and  _573
REMARK  230  A    between atoms: _573  and  _574
REMARK  231  A    between atoms: _573  and  _576
REMARK  232  A    between atoms: _576  and  _577
REMARK  233  A    between atoms: _580  and  _582
REMARK  234  A    between atoms: _582  and  _583
REMARK  235  A    between atoms: _585  and  _587
REMARK  236  A    between atoms: _587  and  _588
REMARK  237  A    between atoms: _587  and  _590
REMARK  238  A    between atoms: _590  and  _591
REMARK  239  A    between atoms: _591  and  _592
REMARK  240  A    between atoms: _592  and  _593
REMARK  241  A    between atoms: _602  and  _604
REMARK  242  A    between atoms: _604  and  _605
REMARK  243  A    between atoms: _604  and  _607
REMARK  244  A    between atoms: _607  and  _608
REMARK  245  A    between atoms: _608  and  _609
REMARK  246  A    between atoms: _609  and  _610
REMARK  247  A    between atoms: _610  and  _611
REMARK  248  A    between atoms: _615  and  _617
REMARK  249  A    between atoms: _617  and  _618
REMARK  250  A    between atoms: _617  and  _620
REMARK  251  A    between atoms: _620  and  _621
REMARK  252  A    between atoms: _627  and  _629
REMARK  253  A    between atoms: _629  and  _630
REMARK  254  A    between atoms: _633  and  _635
REMARK  255  A    between atoms: _635  and  _636
REMARK  256  A    between atoms: _635  and  _638
REMARK  257  A    between atoms: _638  and  _639
REMARK  258  A    between atoms: _642  and  _644
REMARK  259  A    between atoms: _644  and  _645
REMARK  260  A    between atoms: _644  and  _647
REMARK  261  A    between atoms: _647  and  _648
REMARK  262  A    between atoms: _650  and  _652
REMARK  263  A    between atoms: _652  and  _653
REMARK  264  A    between atoms: _652  and  _655
REMARK  265  A    between atoms: _655  and  _656
REMARK  266  A    between atoms: _656  and  _657
REMARK  267  A    between atoms: _662  and  _664
REMARK  268  A    between atoms: _664  and  _665
REMARK  269  A    between atoms: _664  and  _667
REMARK  270  A    between atoms: _667  and  _668
REMARK  271  A    between atoms: _670  and  _672
REMARK  272  A    between atoms: _672  and  _673
REMARK  273  A    between atoms: _672  and  _675
REMARK  274  A    between atoms: _675  and  _676
REMARK  275  A    between atoms: _679  and  _681
REMARK  276  A    between atoms: _681  and  _682
REMARK  277  A    between atoms: _684  and  _686
REMARK  278  A    between atoms: _686  and  _687
REMARK  279  A    between atoms: _686  and  _689
REMARK  280  A    between atoms: _689  and  _690
REMARK  281  A    between atoms: _693  and  _695
REMARK  282  A    between atoms: _695  and  _696
REMARK  283  A    between atoms: _695  and  _698
REMARK  284  A    between atoms: _701  and  _703
REMARK  285  A    between atoms: _703  and  _704
REMARK  286  A    between atoms: _706  and  _708
REMARK  287  A    between atoms: _708  and  _709
REMARK  288  A    between atoms: _712  and  _714
REMARK  289  A    between atoms: _714  and  _715
REMARK  290  A    between atoms: _714  and  _717
REMARK  291  A    between atoms: _720  and  _722
REMARK  292  A    between atoms: _722  and  _723
REMARK  293  A    between atoms: _722  and  _725
REMARK  294  A    between atoms: _725  and  _726
REMARK  295  A    between atoms: _726  and  _727
REMARK  296  A    between atoms: _729  and  _731
REMARK  297  A    between atoms: _731  and  _732
REMARK  298  A    between atoms: _731  and  _734
REMARK  299  A    between atoms: _734  and  _735
REMARK  300  A    between atoms: _735  and  _736
REMARK                            x       y       z     vdW  Elec       q    Type
REMARK                         _______ _______ _______ _____ _____    ______ ____
ROOT
ATOM      1  CG  TRP A   1      36.058 -12.698   5.545  0.00  0.00    -0.002 A 
ATOM      2  CD2 TRP A   1      37.166 -12.567   6.442  0.00  0.00    +0.013 A 
ATOM      3  CE2 TRP A   1      36.767 -11.688   7.465  0.00  0.00    +0.056 A 
ATOM      4  CZ2 TRP A   1      37.616 -11.316   8.515  0.00  0.00    +0.017 A 
ATOM      5  CH2 TRP A   1      38.883 -11.841   8.524  0.00  0.00    +0.001 A 
ATOM      6  CZ3 TRP A   1      39.313 -12.731   7.516  0.00  0.00    +0.000 A 
ATOM      7  NE1 TRP A   1      35.475 -11.317   7.201  0.00  0.00    -0.352 N 
ATOM      8  HE1 TRP A   1      34.903 -10.669   7.780  0.00  0.00    +0.166 HD
ATOM      9  CE3 TRP A   1      38.463 -13.100   6.474  0.00  0.00    +0.001 A 
ATOM     10  CD1 TRP A   1      35.059 -11.934   6.056  0.00  0.00    +0.068 A 
ENDROOT
BRANCH   1  11
ATOM     11  CB  TRP A   1      36.040 -13.405   4.248  0.00  0.00    +0.053 C 
BRANCH  11  12
ATOM     12  CA  TRP A   1      35.686 -14.897   4.285  0.00  0.00    +0.137 C 
BRANCH  12  13
ATOM     13  N   TRP A   1      34.467 -15.184   5.024  0.00  0.00    -0.239 NA
ATOM     14  H   TRP A   1      34.338 -14.832   5.994  0.00  0.00    +0.142 HD
ENDBRANCH  12  13
BRANCH  12  15
ATOM     15  C   TRP A   1      36.801 -15.723   4.912  0.00  0.00    +0.224 C 
ATOM     16  O   TRP A   1      36.770 -16.018   6.105  0.00  0.00    -0.287 OA
ENDBRANCH  12  15
ENDBRANCH  11  12
ENDBRANCH   1  11
TORSDOF 4
REMARK  Name = ../refined-set-2016/4gid/4gid_pocket.pdb
REMARK  300 active torsions:
REMARK  status: ('A' for Active; 'I' for Inactive)
REMARK    1  A    between atoms: _1  and  _3
REMARK    2  A    between atoms: _3  and  _4
REMARK    3  A    between atoms: _6  and  _8
REMARK    4  A    between atoms: _8  and  _9
REMARK    5  A    between atoms: _8  and  _11
REMARK    6  A    between atoms: _11  and  _12
REMARK    7  A    between atoms: _12  and  _13
REMARK    8  A    between atoms: _13  and  _14
REMARK    9  A    between atoms: _14  and  _15
REMARK   10  A    between atoms: _19  and  _21
REMARK   11  A    between atoms: _21  and  _22
REMARK   12  A    between atoms: _21  and  _24
REMARK   13  A    between atoms: _24  and  _25
REMARK   14  A    between atoms: _27  and  _29
REMARK   15  A    between atoms: _29  and  _30
REMARK   16  A    between atoms: _32  and  _34
REMARK   17  A    between atoms: _34  and  _35
REMARK   18  A    between atoms: _34  and  _37
REMARK   19  A    between atoms: _37  and  _38
REMARK   20  A    between atoms: _38  and  _39
REMARK   21  A    between atoms: _44  and  _46
REMARK   22  A    between atoms: _46  and  _47
REMARK   23  A    between atoms: _49  and  _51
REMARK   24  A    between atoms: _51  and  _52
REMARK   25  A    between atoms: _51  and  _54
REMARK   26  A    between atoms: _54  and  _55
REMARK   27  A    between atoms: _60  and  _61
REMARK   28  A    between atoms: _63  and  _65
REMARK   29  A    between atoms: _65  and  _66
REMARK   30  A    between atoms: _65  and  _68
REMARK   31  A    between atoms: _68  and  _69
REMARK   32  A    between atoms: _74  and  _75
REMARK   33  A    between atoms: _77  and  _79
REMARK   34  A    between atoms: _79  and  _80
REMARK   35  A    between atoms: _79  and  _82
REMARK   36  A    between atoms: _82  and  _83
REMARK   37  A    between atoms: _86  and  _88
REMARK   38  A    between atoms: _88  and  _89
REMARK   39  A    between atoms: _88  and  _91
REMARK   40  A    between atoms: _94  and  _96
REMARK   41  A    between atoms: _96  and  _97
REMARK   42  A    between atoms: _96  and  _99
REMARK   43  A    between atoms: _99  and  _100
REMARK   44  A    between atoms: _103  and  _105
REMARK   45  A    between atoms: _105  and  _106
REMARK   46  A    between atoms: _105  and  _108
REMARK   47  A    between atoms: _108  and  _109
REMARK   48  A    between atoms: _112  and  _114
REMARK   49  A    between atoms: _114  and  _115
REMARK   50  A    between atoms: _117  and  _119
REMARK   51  A    between atoms: _119  and  _120
REMARK   52  A    between atoms: _119  and  _122
REMARK   53  A    between atoms: _122  and  _123
REMARK   54  A    between atoms: _125  and  _127
REMARK   55  A    between atoms: _127  and  _128
REMARK   56  A    between atoms: _127  and  _130
REMARK   57  A    between atoms: _130  and  _131
REMARK   58  A    between atoms: _133  and  _135
REMARK   59  A    between atoms: _135  and  _136
REMARK   60  A    between atoms: _135  and  _138
REMARK   61  A    between atoms: _138  and  _139
REMARK   62  A    between atoms: _144  and  _146
REMARK   63  A    between atoms: _146  and  _147
REMARK   64  A    between atoms: _146  and  _149
REMARK   65  A    between atoms: _149  and  _150
REMARK   66  A    between atoms: _155  and  _156
REMARK   67  A    between atoms: _158  and  _160
REMARK   68  A    between atoms: _160  and  _161
REMARK   69  A    between atoms: _160  and  _163
REMARK   70  A    between atoms: _167  and  _168
REMARK   71  A    between atoms: _173  and  _175
REMARK   72  A    between atoms: _175  and  _176
REMARK   73  A    between atoms: _175  and  _178
REMARK   74  A    between atoms: _178  and  _179
REMARK   75  A    between atoms: _184  and  _185
REMARK   76  A    between atoms: _187  and  _189
REMARK   77  A    between atoms: _189  and  _190
REMARK   78  A    between atoms: _189  and  _192
REMARK   79  A    between atoms: _192  and  _193
REMARK   80  A    between atoms: _196  and  _198
REMARK   81  A    between atoms: _198  and  _199
REMARK   82  A    between atoms: _198  and  _201
REMARK   83  A    between atoms: _201  and  _202
REMARK   84  A    between atoms: _202  and  _203
REMARK   85  A    between atoms: _208  and  _210
REMARK   86  A    between atoms: _210  and  _211
REMARK   87  A    between atoms: _213  and  _215
REMARK   88  A    between atoms: _215  and  _216
REMARK   89  A    between atoms: _215  and  _218
REMARK   90  A    between atoms: _218  and  _219
REMARK   91  A    between atoms: _219  and  _220
REMARK   92  A    between atoms: _220  and  _221
REMARK   93  A    between atoms: _221  and  _222
REMARK   94  A    between atoms: _226  and  _228
REMARK   95  A    between atoms: _228  and  _229
REMARK   96  A    between atoms: _228  and  _231
REMARK   97  A    between atoms: _231  and  _232
REMARK   98  A    between atoms: _242  and  _244
REMARK   99  A    between atoms: _244  and  _245
REMARK  100  A    between atoms: _244  and  _247
REMARK  101  A    between atoms: _247  and  _248
REMARK  102  A    between atoms: _251  and  _253
REMARK  103  A    between atoms: _253  and  _254
REMARK  104  A    between atoms: _253  and  _256
REMARK  105  A    between atoms: _256  and  _257
REMARK  106  A    between atoms: _257  and  _258
REMARK  107  A    between atoms: _258  and  _259
REMARK  108  A    between atoms: _259  and  _260
REMARK  109  A    between atoms: _264  and  _266
REMARK  110  A    between atoms: _266  and  _267
REMARK  111  A    between atoms: _266  and  _269
REMARK  112  A    between atoms: _269  and  _270
REMARK  113  A    between atoms: _276  and  _278
REMARK  114  A    between atoms: _278  and  _279
REMARK  115  A    between atoms: _278  and  _281
REMARK  116  A    between atoms: _281  and  _282
REMARK  117  A    between atoms: _288  and  _290
REMARK  118  A    between atoms: _290  and  _291
REMARK  119  A    between atoms: _290  and  _293
REMARK  120  A    between atoms: _293  and  _294
REMARK  121  A    between atoms: _297  and  _299
REMARK  122  A    between atoms: _299  and  _300
REMARK  123  A    between atoms: _299  and  _302
REMARK  124  A    between atoms: _302  and  _303
REMARK  125  A    between atoms: _305  and  _307
REMARK  126  A    between atoms: _307  and  _308
REMARK  127  A    between atoms: _307  and  _310
REMARK  128  A    between atoms: _310  and  _311
REMARK  129  A    between atoms: _321  and  _323
REMARK  130  A    between atoms: _323  and  _324
REMARK  131  A    between atoms: _326  and  _328
REMARK  132  A    between atoms: _328  and  _329
REMARK  133  A    between atoms: _328  and  _331
REMARK  134  A    between atoms: _331  and  _332
REMARK  135  A    between atoms: _335  and  _337
REMARK  136  A    between atoms: _337  and  _338
REMARK  137  A    between atoms: _337  and  _340
REMARK  138  A    between atoms: _340  and  _341
REMARK  139  A    between atoms: _344  and  _346
REMARK  140  A    between atoms: _346  and  _347
REMARK  141  A    between atoms: _349  and  _351
REMARK  142  A    between atoms: _351  and  _352
REMARK  143  A    between atoms: _355  and  _357
REMARK  144  A    between atoms: _357  and  _358
REMARK  145  A    between atoms: _357  and  _360
REMARK  146  A    between atoms: _360  and  _361
REMARK  147  A    between atoms: _366  and  _367
REMARK  148  A    between atoms: _369  and  _371
REMARK  149  A    between atoms: _371  and  _372
REMARK  150  A    between atoms: _371  and  _374
REMARK  151  A    between atoms: _374  and  _375
REMARK  152  A    between atoms: _375  and  _376
REMARK  153  A    between atoms: _379  and  _381
REMARK  154  A    between atoms: _381  and  _382
REMARK  155  A    between atoms: _381  and  _384
REMARK  156  A    between atoms: _384  and  _385
REMARK  157  A    between atoms: _388  and  _390
REMARK  158  A    between atoms: _390  and  _391
REMARK  159  A    between atoms: _394  and  _396
REMARK  160  A    between atoms: _396  and  _397
REMARK  161  A    between atoms: _396  and  _399
REMARK  162  A    between atoms: _399  and  _400
REMARK  163  A    between atoms: _400  and  _401
REMARK  164  A    between atoms: _401  and  _402
REMARK  165  A    between atoms: _411  and  _413
REMARK  166  A    between atoms: _413  and  _414
REMARK  167  A    between atoms: _413  and  _416
REMARK  168  A    between atoms: _416  and  _417
REMARK  169  A    between atoms: _420  and  _422
REMARK  170  A    between atoms: _422  and  _423
REMARK  171  A    between atoms: _422  and  _425
REMARK  172  A    between atoms: _425  and  _426
REMARK  173  A    between atoms: _436  and  _438
REMARK  174  A    between atoms: _438  and  _439
REMARK  175  A    between atoms: _438  and  _441
REMARK  176  A    between atoms: _441  and  _442
REMARK  177  A    between atoms: _447  and  _448
REMARK  178  A    between atoms: _450  and  _452
REMARK  179  A    between atoms: _452  and  _453
REMARK  180  A    between atoms: _452  and  _455
REMARK  181  A    between atoms: _455  and  _456
REMARK  182  A    between atoms: _461  and  _462
REMARK  183  A    between atoms: _464  and  _466
REMARK  184  A    between atoms: _466  and  _467
REMARK  185  A    between atoms: _466  and  _469
REMARK  186  A    between atoms: _469  and  _470
REMARK  187  A    between atoms: _470  and  _471
REMARK  188  A    between atoms: _471  and  _472
REMARK  189  A    between atoms: _472  and  _473
REMARK  190  A    between atoms: _477  and  _479
REMARK  191  A    between atoms: _479  and  _480
REMARK  192  A    between atoms: _479  and  _482
REMARK  193  A    between atoms: _482  and  _483
REMARK  194  A    between atoms: _486  and  _488
REMARK  195  A    between atoms: _488  and  _489
REMARK  196  A    between atoms: _488  and  _491
REMARK  197  A    between atoms: _494  and  _496
REMARK  198  A    between atoms: _496  and  _497
REMARK  199  A    between atoms: _496  and  _499
REMARK  200  A    between atoms: _499  and  _500
REMARK  201  A    between atoms: _503  and  _505
REMARK  202  A    between atoms: _505  and  _506
REMARK  203  A    between atoms: _505  and  _508
REMARK  204  A    between atoms: _508  and  _509
REMARK  205  A    between atoms: _511  and  _513
REMARK  206  A    between atoms: _513  and  _514
REMARK  207  A    between atoms: _516  and  _518
REMARK  208  A    between atoms: _518  and  _519
REMARK  209  A    between atoms: _518  and  _521
REMARK  210  A    between atoms: _521  and  _522
REMARK  211  A    between atoms: _525  and  _527
REMARK  212  A    between atoms: _527  and  _528
REMARK  213  A    between atoms: _527  and  _530
REMARK  214  A    between atoms: _530  and  _531
REMARK  215  A    between atoms: _534  and  _536
REMARK  216  A    between atoms: _536  and  _537
REMARK  217  A    between atoms: _536  and  _539
REMARK  218  A    between atoms: _539  and  _540
REMARK  219  A    between atoms: _545  and  _547
REMARK  220  A    between atoms: _547  and  _548
REMARK  221  A    between atoms: _547  and  _550
REMARK  222  A    between atoms: _550  and  _551
REMARK  223  A    between atoms: _554  and  _556
REMARK  224  A    between atoms: _556  and  _557
REMARK  225  A    between atoms: _556  and  _559
REMARK  226  A    between atoms: _559  and  _560
REMARK  227  A    between atoms: _560  and  _561
REMARK  228  A    between atoms: _561  and  _562
REMARK  229  A    between atoms: _571  and  _573
REMARK  230  A    between atoms: _573  and  _574
REMARK  231  A    between atoms: _573  and  _576
REMARK  232  A    between atoms: _576  and  _577
REMARK  233  A    between atoms: _580  and  _582
REMARK  234  A    between atoms: _582  and  _583
REMARK  235  A    between atoms: _585  and  _587
REMARK  236  A    between atoms: _587  and  _588
REMARK  237  A    between atoms: _587  and  _590
REMARK  238  A    between atoms: _590  and  _591
REMARK  239  A    between atoms: _591  and  _592
REMARK  240  A    between atoms: _592  and  _593
REMARK  241  A    between atoms: _602  and  _604
REMARK  242  A    between atoms: _604  and  _605
REMARK  243  A    between atoms: _604  and  _607
REMARK  244  A    between atoms: _607  and  _608
REMARK  245  A    between atoms: _608  and  _609
REMARK  246  A    between atoms: _609  and  _610
REMARK  247  A    between atoms: _610  and  _611
REMARK  248  A    between atoms: _615  and  _617
REMARK  249  A    between atoms: _617  and  _618
REMARK  250  A    between atoms: _617  and  _620
REMARK  251  A    between atoms: _620  and  _621
REMARK  252  A    between atoms: _627  and  _629
REMARK  253  A    between atoms: _629  and  _630
REMARK  254  A    between atoms: _633  and  _635
REMARK  255  A    between atoms: _635  and  _636
REMARK  256  A    between atoms: _635  and  _638
REMARK  257  A    between atoms: _638  and  _639
REMARK  258  A    between atoms: _642  and  _644
REMARK  259  A    between atoms: _644  and  _645
REMARK  260  A    between atoms: _644  and  _647
REMARK  261  A    between atoms: _647  and  _648
REMARK  262  A    between atoms: _650  and  _652
REMARK  263  A    between atoms: _652  and  _653
REMARK  264  A    between atoms: _652  and  _655
REMARK  265  A    between atoms: _655  and  _656
REMARK  266  A    between atoms: _656  and  _657
REMARK  267  A    between atoms: _662  and  _664
REMARK  268  A    between atoms: _664  and  _665
REMARK  269  A    between atoms: _664  and  _667
REMARK  270  A    between atoms: _667  and  _668
REMARK  271  A    between atoms: _670  and  _672
REMARK  272  A    between atoms: _672  and  _673
REMARK  273  A    between atoms: _672  and  _675
REMARK  274  A    between atoms: _675  and  _676
REMARK  275  A    between atoms: _679  and  _681
REMARK  276  A    between atoms: _681  and  _682
REMARK  277  A    between atoms: _684  and  _686
REMARK  278  A    between atoms: _686  and  _687
REMARK  279  A    between atoms: _686  and  _689
REMARK  280  A    between atoms: _689  and  _690
REMARK  281  A    between atoms: _693  and  _695
REMARK  282  A    between atoms: _695  and  _696
REMARK  283  A    between atoms: _695  and  _698
REMARK  284  A    between atoms: _701  and  _703
REMARK  285  A    between atoms: _703  and  _704
REMARK  286  A    between atoms: _706  and  _708
REMARK  287  A    between atoms: _708  and  _709
REMARK  288  A    between atoms: _712  and  _714
REMARK  289  A    between atoms: _714  and  _715
REMARK  290  A    between atoms: _714  and  _717
REMARK  291  A    between atoms: _720  and  _722
REMARK  292  A    between atoms: _722  and  _723
REMARK  293  A    between atoms: _722  and  _725
REMARK  294  A    between atoms: _725  and  _726
REMARK  295  A    between atoms: _726  and  _727
REMARK  296  A    between atoms: _729  and  _731
REMARK  297  A    between atoms: _731  and  _732
REMARK  298  A    between atoms: _731  and  _734
REMARK  299  A    between atoms: _734  and  _735
REMARK  300  A    between atoms: _735  and  _736
REMARK                            x       y       z     vdW  Elec       q    Type
REMARK                         _______ _______ _______ _____ _____    ______ ____
ROOT
ATOM      1  C   ILE A   2      43.340 -10.323   2.249  0.00  0.00    +0.241 C 
ATOM      2  O   ILE A   2      44.437 -10.825   1.991  0.00  0.00    -0.273 OA
ATOM      3  N   LEU A   3      42.848  -9.287   1.581  0.00  0.00    -0.297 N 
ATOM      4  H   LEU A   3      41.908  -8.921   1.835  0.00  0.00    +0.150 HD
ENDROOT
BRANCH   1   5
ATOM      5  CA  ILE A   2      42.461 -10.886   3.360  0.00  0.00    +0.148 C 
BRANCH   5   8
ATOM      6  C   GLY A   1      41.431 -13.026   3.568  0.00  0.00    +0.240 C 
ATOM      7  O   GLY A   1      40.305 -12.519   3.649  0.00  0.00    -0.274 OA
ATOM      8  N   ILE A   2      42.525 -12.321   3.381  0.00  0.00    -0.297 N 
ATOM      9  H   ILE A   2      43.437 -12.803   3.248  0.00  0.00    +0.150 HD
BRANCH   6  10
ATOM     10  CA  GLY A   1      41.617 -14.518   3.632  0.00  0.00    +0.169 C 
BRANCH  10  11
ATOM     11  N   GLY A   1      40.341 -15.141   3.864  0.00  0.00    -0.236 NA
ATOM     12  H   GLY A   1      39.464 -14.622   3.658  0.00  0.00    +0.142 HD
ENDBRANCH  10  11
ENDBRANCH   6  10
ENDBRANCH   5   8
BRANCH   5  13
ATOM     13  CB  ILE A   2      42.903 -10.358   4.732  0.00  0.00    +0.027 C 
ATOM     14  CG2 ILE A   2      44.352 -10.757   4.984  0.00  0.00    +0.002 C 
BRANCH  13  15
ATOM     15  CG1 ILE A   2      42.757  -8.840   4.794  0.00  0.00    +0.002 C 
ATOM     16  CD1 ILE A   2      42.957  -8.268   6.207  0.00  0.00    +0.000 C 
ENDBRANCH  13  15
ENDBRANCH   5  13
ENDBRANCH   1   5
BRANCH   3  17
ATOM     17  CA  LEU A   3      43.587  -8.651   0.504  0.00  0.00    +0.149 C 
BRANCH  17  18
ATOM     18  C   LEU A   3      44.033  -7.235   0.891  0.00  0.00    +0.241 C 
ATOM     19  N   GLY A   4      45.278  -7.098   1.341  0.00  0.00    -0.296 N 
ATOM     20  H   GLY A   4      45.882  -7.940   1.424  0.00  0.00    +0.150 HD
ATOM     21  O   LEU A   3      43.250  -6.294   0.804  0.00  0.00    -0.273 OA
BRANCH  19  22
ATOM     22  CA  GLY A   4      45.815  -5.800   1.720  0.00  0.00    +0.163 C 
BRANCH  22  23
ATOM     23  C   GLY A   4      46.053  -4.980   0.465  0.00  0.00    +0.229 C 
ATOM     24  O   GLY A   4      46.905  -5.317  -0.392  0.00  0.00    -0.286 OA
ENDBRANCH  22  23
ENDBRANCH  19  22
ENDBRANCH  17  18
BRANCH  17  25
ATOM     25  CB  LEU A   3      42.708  -8.613  -0.754  0.00  0.00    +0.029 C 
BRANCH  25  26
ATOM     26  CG  LEU A   3      43.211  -7.992  -2.064  0.00  0.00    +0.002 C 
ATOM     27  CD2 LEU A   3      44.442  -8.731  -2.556  0.00  0.00    +0.000 C 
ATOM     28  CD1 LEU A   3      42.111  -8.073  -3.131  0.00  0.00    +0.000 C 
ENDBRANCH  25  26
ENDBRANCH  17  25
ENDBRANCH   3  17
TORSDOF 12
REMARK  Name = ../refined-set-2016/4gid/4gid_pocket.pdb
REMARK  300 active torsions:
REMARK  status: ('A' for Active; 'I' for Inactive)
REMARK    1  A    between atoms: _1  and  _3
REMARK    2  A    between atoms: _3  and  _4
REMARK    3  A    between atoms: _6  and  _8
REMARK    4  A    between atoms: _8  and  _9
REMARK    5  A    between atoms: _8  and  _11
REMARK    6  A    between atoms: _11  and  _12
REMARK    7  A    between atoms: _12  and  _13
REMARK    8  A    between atoms: _13  and  _14
REMARK    9  A    between atoms: _14  and  _15
REMARK   10  A    between atoms: _19  and  _21
REMARK   11  A    between atoms: _21  and  _22
REMARK   12  A    between atoms: _21  and  _24
REMARK   13  A    between atoms: _24  and  _25
REMARK   14  A    between atoms: _27  and  _29
REMARK   15  A    between atoms: _29  and  _30
REMARK   16  A    between atoms: _32  and  _34
REMARK   17  A    between atoms: _34  and  _35
REMARK   18  A    between atoms: _34  and  _37
REMARK   19  A    between atoms: _37  and  _38
REMARK   20  A    between atoms: _38  and  _39
REMARK   21  A    between atoms: _44  and  _46
REMARK   22  A    between atoms: _46  and  _47
REMARK   23  A    between atoms: _49  and  _51
REMARK   24  A    between atoms: _51  and  _52
REMARK   25  A    between atoms: _51  and  _54
REMARK   26  A    between atoms: _54  and  _55
REMARK   27  A    between atoms: _60  and  _61
REMARK   28  A    between atoms: _63  and  _65
REMARK   29  A    between atoms: _65  and  _66
REMARK   30  A    between atoms: _65  and  _68
REMARK   31  A    between atoms: _68  and  _69
REMARK   32  A    between atoms: _74  and  _75
REMARK   33  A    between atoms: _77  and  _79
REMARK   34  A    between atoms: _79  and  _80
REMARK   35  A    between atoms: _79  and  _82
REMARK   36  A    between atoms: _82  and  _83
REMARK   37  A    between atoms: _86  and  _88
REMARK   38  A    between atoms: _88  and  _89
REMARK   39  A    between atoms: _88  and  _91
REMARK   40  A    between atoms: _94  and  _96
REMARK   41  A    between atoms: _96  and  _97
REMARK   42  A    between atoms: _96  and  _99
REMARK   43  A    between atoms: _99  and  _100
REMARK   44  A    between atoms: _103  and  _105
REMARK   45  A    between atoms: _105  and  _106
REMARK   46  A    between atoms: _105  and  _108
REMARK   47  A    between atoms: _108  and  _109
REMARK   48  A    between atoms: _112  and  _114
REMARK   49  A    between atoms: _114  and  _115
REMARK   50  A    between atoms: _117  and  _119
REMARK   51  A    between atoms: _119  and  _120
REMARK   52  A    between atoms: _119  and  _122
REMARK   53  A    between atoms: _122  and  _123
REMARK   54  A    between atoms: _125  and  _127
REMARK   55  A    between atoms: _127  and  _128
REMARK   56  A    between atoms: _127  and  _130
REMARK   57  A    between atoms: _130  and  _131
REMARK   58  A    between atoms: _133  and  _135
REMARK   59  A    between atoms: _135  and  _136
REMARK   60  A    between atoms: _135  and  _138
REMARK   61  A    between atoms: _138  and  _139
REMARK   62  A    between atoms: _144  and  _146
REMARK   63  A    between atoms: _146  and  _147
REMARK   64  A    between atoms: _146  and  _149
REMARK   65  A    between atoms: _149  and  _150
REMARK   66  A    between atoms: _155  and  _156
REMARK   67  A    between atoms: _158  and  _160
REMARK   68  A    between atoms: _160  and  _161
REMARK   69  A    between atoms: _160  and  _163
REMARK   70  A    between atoms: _167  and  _168
REMARK   71  A    between atoms: _173  and  _175
REMARK   72  A    between atoms: _175  and  _176
REMARK   73  A    between atoms: _175  and  _178
REMARK   74  A    between atoms: _178  and  _179
REMARK   75  A    between atoms: _184  and  _185
REMARK   76  A    between atoms: _187  and  _189
REMARK   77  A    between atoms: _189  and  _190
REMARK   78  A    between atoms: _189  and  _192
REMARK   79  A    between atoms: _192  and  _193
REMARK   80  A    between atoms: _196  and  _198
REMARK   81  A    between atoms: _198  and  _199
REMARK   82  A    between atoms: _198  and  _201
REMARK   83  A    between atoms: _201  and  _202
REMARK   84  A    between atoms: _202  and  _203
REMARK   85  A    between atoms: _208  and  _210
REMARK   86  A    between atoms: _210  and  _211
REMARK   87  A    between atoms: _213  and  _215
REMARK   88  A    between atoms: _215  and  _216
REMARK   89  A    between atoms: _215  and  _218
REMARK   90  A    between atoms: _218  and  _219
REMARK   91  A    between atoms: _219  and  _220
REMARK   92  A    between atoms: _220  and  _221
REMARK   93  A    between atoms: _221  and  _222
REMARK   94  A    between atoms: _226  and  _228
REMARK   95  A    between atoms: _228  and  _229
REMARK   96  A    between atoms: _228  and  _231
REMARK   97  A    between atoms: _231  and  _232
REMARK   98  A    between atoms: _242  and  _244
REMARK   99  A    between atoms: _244  and  _245
REMARK  100  A    between atoms: _244  and  _247
REMARK  101  A    between atoms: _247  and  _248
REMARK  102  A    between atoms: _251  and  _253
REMARK  103  A    between atoms: _253  and  _254
REMARK  104  A    between atoms: _253  and  _256
REMARK  105  A    between atoms: _256  and  _257
REMARK  106  A    between atoms: _257  and  _258
REMARK  107  A    between atoms: _258  and  _259
REMARK  108  A    between atoms: _259  and  _260
REMARK  109  A    between atoms: _264  and  _266
REMARK  110  A    between atoms: _266  and  _267
REMARK  111  A    between atoms: _266  and  _269
REMARK  112  A    between atoms: _269  and  _270
REMARK  113  A    between atoms: _276  and  _278
REMARK  114  A    between atoms: _278  and  _279
REMARK  115  A    between atoms: _278  and  _281
REMARK  116  A    between atoms: _281  and  _282
REMARK  117  A    between atoms: _288  and  _290
REMARK  118  A    between atoms: _290  and  _291
REMARK  119  A    between atoms: _290  and  _293
REMARK  120  A    between atoms: _293  and  _294
REMARK  121  A    between atoms: _297  and  _299
REMARK  122  A    between atoms: _299  and  _300
REMARK  123  A    between atoms: _299  and  _302
REMARK  124  A    between atoms: _302  and  _303
REMARK  125  A    between atoms: _305  and  _307
REMARK  126  A    between atoms: _307  and  _308
REMARK  127  A    between atoms: _307  and  _310
REMARK  128  A    between atoms: _310  and  _311
REMARK  129  A    between atoms: _321  and  _323
REMARK  130  A    between atoms: _323  and  _324
REMARK  131  A    between atoms: _326  and  _328
REMARK  132  A    between atoms: _328  and  _329
REMARK  133  A    between atoms: _328  and  _331
REMARK  134  A    between atoms: _331  and  _332
REMARK  135  A    between atoms: _335  and  _337
REMARK  136  A    between atoms: _337  and  _338
REMARK  137  A    between atoms: _337  and  _340
REMARK  138  A    between atoms: _340  and  _341
REMARK  139  A    between atoms: _344  and  _346
REMARK  140  A    between atoms: _346  and  _347
REMARK  141  A    between atoms: _349  and  _351
REMARK  142  A    between atoms: _351  and  _352
REMARK  143  A    between atoms: _355  and  _357
REMARK  144  A    between atoms: _357  and  _358
REMARK  145  A    between atoms: _357  and  _360
REMARK  146  A    between atoms: _360  and  _361
REMARK  147  A    between atoms: _366  and  _367
REMARK  148  A    between atoms: _369  and  _371
REMARK  149  A    between atoms: _371  and  _372
REMARK  150  A    between atoms: _371  and  _374
REMARK  151  A    between atoms: _374  and  _375
REMARK  152  A    between atoms: _375  and  _376
REMARK  153  A    between atoms: _379  and  _381
REMARK  154  A    between atoms: _381  and  _382
REMARK  155  A    between atoms: _381  and  _384
REMARK  156  A    between atoms: _384  and  _385
REMARK  157  A    between atoms: _388  and  _390
REMARK  158  A    between atoms: _390  and  _391
REMARK  159  A    between atoms: _394  and  _396
REMARK  160  A    between atoms: _396  and  _397
REMARK  161  A    between atoms: _396  and  _399
REMARK  162  A    between atoms: _399  and  _400
REMARK  163  A    between atoms: _400  and  _401
REMARK  164  A    between atoms: _401  and  _402
REMARK  165  A    between atoms: _411  and  _413
REMARK  166  A    between atoms: _413  and  _414
REMARK  167  A    between atoms: _413  and  _416
REMARK  168  A    between atoms: _416  and  _417
REMARK  169  A    between atoms: _420  and  _422
REMARK  170  A    between atoms: _422  and  _423
REMARK  171  A    between atoms: _422  and  _425
REMARK  172  A    between atoms: _425  and  _426
REMARK  173  A    between atoms: _436  and  _438
REMARK  174  A    between atoms: _438  and  _439
REMARK  175  A    between atoms: _438  and  _441
REMARK  176  A    between atoms: _441  and  _442
REMARK  177  A    between atoms: _447  and  _448
REMARK  178  A    between atoms: _450  and  _452
REMARK  179  A    between atoms: _452  and  _453
REMARK  180  A    between atoms: _452  and  _455
REMARK  181  A    between atoms: _455  and  _456
REMARK  182  A    between atoms: _461  and  _462
REMARK  183  A    between atoms: _464  and  _466
REMARK  184  A    between atoms: _466  and  _467
REMARK  185  A    between atoms: _466  and  _469
REMARK  186  A    between atoms: _469  and  _470
REMARK  187  A    between atoms: _470  and  _471
REMARK  188  A    between atoms: _471  and  _472
REMARK  189  A    between atoms: _472  and  _473
REMARK  190  A    between atoms: _477  and  _479
REMARK  191  A    between atoms: _479  and  _480
REMARK  192  A    between atoms: _479  and  _482
REMARK  193  A    between atoms: _482  and  _483
REMARK  194  A    between atoms: _486  and  _488
REMARK  195  A    between atoms: _488  and  _489
REMARK  196  A    between atoms: _488  and  _491
REMARK  197  A    between atoms: _494  and  _496
REMARK  198  A    between atoms: _496  and  _497
REMARK  199  A    between atoms: _496  and  _499
REMARK  200  A    between atoms: _499  and  _500
REMARK  201  A    between atoms: _503  and  _505
REMARK  202  A    between atoms: _505  and  _506
REMARK  203  A    between atoms: _505  and  _508
REMARK  204  A    between atoms: _508  and  _509
REMARK  205  A    between atoms: _511  and  _513
REMARK  206  A    between atoms: _513  and  _514
REMARK  207  A    between atoms: _516  and  _518
REMARK  208  A    between atoms: _518  and  _519
REMARK  209  A    between atoms: _518  and  _521
REMARK  210  A    between atoms: _521  and  _522
REMARK  211  A    between atoms: _525  and  _527
REMARK  212  A    between atoms: _527  and  _528
REMARK  213  A    between atoms: _527  and  _530
REMARK  214  A    between atoms: _530  and  _531
REMARK  215  A    between atoms: _534  and  _536
REMARK  216  A    between atoms: _536  and  _537
REMARK  217  A    between atoms: _536  and  _539
REMARK  218  A    between atoms: _539  and  _540
REMARK  219  A    between atoms: _545  and  _547
REMARK  220  A    between atoms: _547  and  _548
REMARK  221  A    between atoms: _547  and  _550
REMARK  222  A    between atoms: _550  and  _551
REMARK  223  A    between atoms: _554  and  _556
REMARK  224  A    between atoms: _556  and  _557
REMARK  225  A    between atoms: _556  and  _559
REMARK  226  A    between atoms: _559  and  _560
REMARK  227  A    between atoms: _560  and  _561
REMARK  228  A    between atoms: _561  and  _562
REMARK  229  A    between atoms: _571  and  _573
REMARK  230  A    between atoms: _573  and  _574
REMARK  231  A    between atoms: _573  and  _576
REMARK  232  A    between atoms: _576  and  _577
REMARK  233  A    between atoms: _580  and  _582
REMARK  234  A    between atoms: _582  and  _583
REMARK  235  A    between atoms: _585  and  _587
REMARK  236  A    between atoms: _587  and  _588
REMARK  237  A    between atoms: _587  and  _590
REMARK  238  A    between atoms: _590  and  _591
REMARK  239  A    between atoms: _591  and  _592
REMARK  240  A    between atoms: _592  and  _593
REMARK  241  A    between atoms: _602  and  _604
REMARK  242  A    between atoms: _604  and  _605
REMARK  243  A    between atoms: _604  and  _607
REMARK  244  A    between atoms: _607  and  _608
REMARK  245  A    between atoms: _608  and  _609
REMARK  246  A    between atoms: _609  and  _610
REMARK  247  A    between atoms: _610  and  _611
REMARK  248  A    between atoms: _615  and  _617
REMARK  249  A    between atoms: _617  and  _618
REMARK  250  A    between atoms: _617  and  _620
REMARK  251  A    between atoms: _620  and  _621
REMARK  252  A    between atoms: _627  and  _629
REMARK  253  A    between atoms: _629  and  _630
REMARK  254  A    between atoms: _633  and  _635
REMARK  255  A    between atoms: _635  and  _636
REMARK  256  A    between atoms: _635  and  _638
REMARK  257  A    between atoms: _638  and  _639
REMARK  258  A    between atoms: _642  and  _644
REMARK  259  A    between atoms: _644  and  _645
REMARK  260  A    between atoms: _644  and  _647
REMARK  261  A    between atoms: _647  and  _648
REMARK  262  A    between atoms: _650  and  _652
REMARK  263  A    between atoms: _652  and  _653
REMARK  264  A    between atoms: _652  and  _655
REMARK  265  A    between atoms: _655  and  _656
REMARK  266  A    between atoms: _656  and  _657
REMARK  267  A    between atoms: _662  and  _664
REMARK  268  A    between atoms: _664  and  _665
REMARK  269  A    between atoms: _664  and  _667
REMARK  270  A    between atoms: _667  and  _668
REMARK  271  A    between atoms: _670  and  _672
REMARK  272  A    between atoms: _672  and  _673
REMARK  273  A    between atoms: _672  and  _675
REMARK  274  A    between atoms: _675  and  _676
REMARK  275  A    between atoms: _679  and  _681
REMARK  276  A    between atoms: _681  and  _682
REMARK  277  A    between atoms: _684  and  _686
REMARK  278  A    between atoms: _686  and  _687
REMARK  279  A    between atoms: _686  and  _689
REMARK  280  A    between atoms: _689  and  _690
REMARK  281  A    between atoms: _693  and  _695
REMARK  282  A    between atoms: _695  and  _696
REMARK  283  A    between atoms: _695  and  _698
REMARK  284  A    between atoms: _701  and  _703
REMARK  285  A    between atoms: _703  and  _704
REMARK  286  A    between atoms: _706  and  _708
REMARK  287  A    between atoms: _708  and  _709
REMARK  288  A    between atoms: _712  and  _714
REMARK  289  A    between atoms: _714  and  _715
REMARK  290  A    between atoms: _714  and  _717
REMARK  291  A    between atoms: _720  and  _722
REMARK  292  A    between atoms: _722  and  _723
REMARK  293  A    between atoms: _722  and  _725
REMARK  294  A    between atoms: _725  and  _726
REMARK  295  A    between atoms: _726  and  _727
REMARK  296  A    between atoms: _729  and  _731
REMARK  297  A    between atoms: _731  and  _732
REMARK  298  A    between atoms: _731  and  _734
REMARK  299  A    between atoms: _734  and  _735
REMARK  300  A    between atoms: _735  and  _736
REMARK                            x       y       z     vdW  Elec       q    Type
REMARK                         _______ _______ _______ _____ _____    ______ ____
ROOT
ATOM      1  CA  TYR A   2      51.336   0.198  -0.238  0.00  0.00    +0.141 C 
ENDROOT
BRANCH   1   3
ATOM      2  C   ALA A   1      49.077  -0.644   0.070  0.00  0.00    +0.238 C 
ATOM      3  N   TYR A   2      50.000   0.276   0.345  0.00  0.00    -0.298 N 
ATOM      4  H   TYR A   2      49.765   1.062   0.985  0.00  0.00    +0.150 HD
ATOM      5  O   ALA A   1      49.332  -1.672  -0.571  0.00  0.00    -0.274 OA
BRANCH   2   6
ATOM      6  CA  ALA A   1      47.668  -0.402   0.627  0.00  0.00    +0.145 C 
ATOM      7  CB  ALA A   1      47.713  -0.030   2.122  0.00  0.00    +0.028 C 
BRANCH   6   8
ATOM      8  N   ALA A   1      46.836  -1.567   0.416  0.00  0.00    -0.238 NA
ATOM      9  H   ALA A   1      46.702  -2.239   1.199  0.00  0.00    +0.142 HD
ENDBRANCH   6   8
ENDBRANCH   2   6
ENDBRANCH   1   3
BRANCH   1  10
ATOM     10  C   TYR A   2      52.422  -0.664   0.423  0.00  0.00    +0.227 C 
ATOM     11  O   TYR A   2      52.340  -0.999   1.599  0.00  0.00    -0.286 OA
ENDBRANCH   1  10
BRANCH   1  12
ATOM     12  CB  TYR A   2      51.859   1.614  -0.452  0.00  0.00    +0.054 C 
BRANCH  12  13
ATOM     13  CG  TYR A   2      50.922   2.489  -1.256  0.00  0.00    -0.020 A 
ATOM     14  CD2 TYR A   2      49.942   3.272  -0.621  0.00  0.00    -0.001 A 
ATOM     15  CE2 TYR A   2      49.094   4.113  -1.357  0.00  0.00    +0.036 A 
ATOM     16  CZ  TYR A   2      49.233   4.171  -2.731  0.00  0.00    +0.134 A 
ATOM     17  CE1 TYR A   2      50.197   3.392  -3.381  0.00  0.00    +0.036 A 
ATOM     18  CD1 TYR A   2      51.026   2.562  -2.648  0.00  0.00    -0.001 A 
BRANCH  16  19
ATOM     19  OH  TYR A   2      48.435   5.018  -3.469  0.00  0.00    -0.506 OA
ATOM     20  HH  TYR A   2      48.665   4.934  -4.428  0.00  0.00    +0.292 HD
ENDBRANCH  16  19
ENDBRANCH  12  13
ENDBRANCH   1  12
TORSDOF 7
REMARK  Name = ../refined-set-2016/4gid/4gid_pocket.pdb
REMARK  300 active torsions:
REMARK  status: ('A' for Active; 'I' for Inactive)
REMARK    1  A    between atoms: _1  and  _3
REMARK    2  A    between atoms: _3  and  _4
REMARK    3  A    between atoms: _6  and  _8
REMARK    4  A    between atoms: _8  and  _9
REMARK    5  A    between atoms: _8  and  _11
REMARK    6  A    between atoms: _11  and  _12
REMARK    7  A    between atoms: _12  and  _13
REMARK    8  A    between atoms: _13  and  _14
REMARK    9  A    between atoms: _14  and  _15
REMARK   10  A    between atoms: _19  and  _21
REMARK   11  A    between atoms: _21  and  _22
REMARK   12  A    between atoms: _21  and  _24
REMARK   13  A    between atoms: _24  and  _25
REMARK   14  A    between atoms: _27  and  _29
REMARK   15  A    between atoms: _29  and  _30
REMARK   16  A    between atoms: _32  and  _34
REMARK   17  A    between atoms: _34  and  _35
REMARK   18  A    between atoms: _34  and  _37
REMARK   19  A    between atoms: _37  and  _38
REMARK   20  A    between atoms: _38  and  _39
REMARK   21  A    between atoms: _44  and  _46
REMARK   22  A    between atoms: _46  and  _47
REMARK   23  A    between atoms: _49  and  _51
REMARK   24  A    between atoms: _51  and  _52
REMARK   25  A    between atoms: _51  and  _54
REMARK   26  A    between atoms: _54  and  _55
REMARK   27  A    between atoms: _60  and  _61
REMARK   28  A    between atoms: _63  and  _65
REMARK   29  A    between atoms: _65  and  _66
REMARK   30  A    between atoms: _65  and  _68
REMARK   31  A    between atoms: _68  and  _69
REMARK   32  A    between atoms: _74  and  _75
REMARK   33  A    between atoms: _77  and  _79
REMARK   34  A    between atoms: _79  and  _80
REMARK   35  A    between atoms: _79  and  _82
REMARK   36  A    between atoms: _82  and  _83
REMARK   37  A    between atoms: _86  and  _88
REMARK   38  A    between atoms: _88  and  _89
REMARK   39  A    between atoms: _88  and  _91
REMARK   40  A    between atoms: _94  and  _96
REMARK   41  A    between atoms: _96  and  _97
REMARK   42  A    between atoms: _96  and  _99
REMARK   43  A    between atoms: _99  and  _100
REMARK   44  A    between atoms: _103  and  _105
REMARK   45  A    between atoms: _105  and  _106
REMARK   46  A    between atoms: _105  and  _108
REMARK   47  A    between atoms: _108  and  _109
REMARK   48  A    between atoms: _112  and  _114
REMARK   49  A    between atoms: _114  and  _115
REMARK   50  A    between atoms: _117  and  _119
REMARK   51  A    between atoms: _119  and  _120
REMARK   52  A    between atoms: _119  and  _122
REMARK   53  A    between atoms: _122  and  _123
REMARK   54  A    between atoms: _125  and  _127
REMARK   55  A    between atoms: _127  and  _128
REMARK   56  A    between atoms: _127  and  _130
REMARK   57  A    between atoms: _130  and  _131
REMARK   58  A    between atoms: _133  and  _135
REMARK   59  A    between atoms: _135  and  _136
REMARK   60  A    between atoms: _135  and  _138
REMARK   61  A    between atoms: _138  and  _139
REMARK   62  A    between atoms: _144  and  _146
REMARK   63  A    between atoms: _146  and  _147
REMARK   64  A    between atoms: _146  and  _149
REMARK   65  A    between atoms: _149  and  _150
REMARK   66  A    between atoms: _155  and  _156
REMARK   67  A    between atoms: _158  and  _160
REMARK   68  A    between atoms: _160  and  _161
REMARK   69  A    between atoms: _160  and  _163
REMARK   70  A    between atoms: _167  and  _168
REMARK   71  A    between atoms: _173  and  _175
REMARK   72  A    between atoms: _175  and  _176
REMARK   73  A    between atoms: _175  and  _178
REMARK   74  A    between atoms: _178  and  _179
REMARK   75  A    between atoms: _184  and  _185
REMARK   76  A    between atoms: _187  and  _189
REMARK   77  A    between atoms: _189  and  _190
REMARK   78  A    between atoms: _189  and  _192
REMARK   79  A    between atoms: _192  and  _193
REMARK   80  A    between atoms: _196  and  _198
REMARK   81  A    between atoms: _198  and  _199
REMARK   82  A    between atoms: _198  and  _201
REMARK   83  A    between atoms: _201  and  _202
REMARK   84  A    between atoms: _202  and  _203
REMARK   85  A    between atoms: _208  and  _210
REMARK   86  A    between atoms: _210  and  _211
REMARK   87  A    between atoms: _213  and  _215
REMARK   88  A    between atoms: _215  and  _216
REMARK   89  A    between atoms: _215  and  _218
REMARK   90  A    between atoms: _218  and  _219
REMARK   91  A    between atoms: _219  and  _220
REMARK   92  A    between atoms: _220  and  _221
REMARK   93  A    between atoms: _221  and  _222
REMARK   94  A    between atoms: _226  and  _228
REMARK   95  A    between atoms: _228  and  _229
REMARK   96  A    between atoms: _228  and  _231
REMARK   97  A    between atoms: _231  and  _232
REMARK   98  A    between atoms: _242  and  _244
REMARK   99  A    between atoms: _244  and  _245
REMARK  100  A    between atoms: _244  and  _247
REMARK  101  A    between atoms: _247  and  _248
REMARK  102  A    between atoms: _251  and  _253
REMARK  103  A    between atoms: _253  and  _254
REMARK  104  A    between atoms: _253  and  _256
REMARK  105  A    between atoms: _256  and  _257
REMARK  106  A    between atoms: _257  and  _258
REMARK  107  A    between atoms: _258  and  _259
REMARK  108  A    between atoms: _259  and  _260
REMARK  109  A    between atoms: _264  and  _266
REMARK  110  A    between atoms: _266  and  _267
REMARK  111  A    between atoms: _266  and  _269
REMARK  112  A    between atoms: _269  and  _270
REMARK  113  A    between atoms: _276  and  _278
REMARK  114  A    between atoms: _278  and  _279
REMARK  115  A    between atoms: _278  and  _281
REMARK  116  A    between atoms: _281  and  _282
REMARK  117  A    between atoms: _288  and  _290
REMARK  118  A    between atoms: _290  and  _291
REMARK  119  A    between atoms: _290  and  _293
REMARK  120  A    between atoms: _293  and  _294
REMARK  121  A    between atoms: _297  and  _299
REMARK  122  A    between atoms: _299  and  _300
REMARK  123  A    between atoms: _299  and  _302
REMARK  124  A    between atoms: _302  and  _303
REMARK  125  A    between atoms: _305  and  _307
REMARK  126  A    between atoms: _307  and  _308
REMARK  127  A    between atoms: _307  and  _310
REMARK  128  A    between atoms: _310  and  _311
REMARK  129  A    between atoms: _321  and  _323
REMARK  130  A    between atoms: _323  and  _324
REMARK  131  A    between atoms: _326  and  _328
REMARK  132  A    between atoms: _328  and  _329
REMARK  133  A    between atoms: _328  and  _331
REMARK  134  A    between atoms: _331  and  _332
REMARK  135  A    between atoms: _335  and  _337
REMARK  136  A    between atoms: _337  and  _338
REMARK  137  A    between atoms: _337  and  _340
REMARK  138  A    between atoms: _340  and  _341
REMARK  139  A    between atoms: _344  and  _346
REMARK  140  A    between atoms: _346  and  _347
REMARK  141  A    between atoms: _349  and  _351
REMARK  142  A    between atoms: _351  and  _352
REMARK  143  A    between atoms: _355  and  _357
REMARK  144  A    between atoms: _357  and  _358
REMARK  145  A    between atoms: _357  and  _360
REMARK  146  A    between atoms: _360  and  _361
REMARK  147  A    between atoms: _366  and  _367
REMARK  148  A    between atoms: _369  and  _371
REMARK  149  A    between atoms: _371  and  _372
REMARK  150  A    between atoms: _371  and  _374
REMARK  151  A    between atoms: _374  and  _375
REMARK  152  A    between atoms: _375  and  _376
REMARK  153  A    between atoms: _379  and  _381
REMARK  154  A    between atoms: _381  and  _382
REMARK  155  A    between atoms: _381  and  _384
REMARK  156  A    between atoms: _384  and  _385
REMARK  157  A    between atoms: _388  and  _390
REMARK  158  A    between atoms: _390  and  _391
REMARK  159  A    between atoms: _394  and  _396
REMARK  160  A    between atoms: _396  and  _397
REMARK  161  A    between atoms: _396  and  _399
REMARK  162  A    between atoms: _399  and  _400
REMARK  163  A    between atoms: _400  and  _401
REMARK  164  A    between atoms: _401  and  _402
REMARK  165  A    between atoms: _411  and  _413
REMARK  166  A    between atoms: _413  and  _414
REMARK  167  A    between atoms: _413  and  _416
REMARK  168  A    between atoms: _416  and  _417
REMARK  169  A    between atoms: _420  and  _422
REMARK  170  A    between atoms: _422  and  _423
REMARK  171  A    between atoms: _422  and  _425
REMARK  172  A    between atoms: _425  and  _426
REMARK  173  A    between atoms: _436  and  _438
REMARK  174  A    between atoms: _438  and  _439
REMARK  175  A    between atoms: _438  and  _441
REMARK  176  A    between atoms: _441  and  _442
REMARK  177  A    between atoms: _447  and  _448
REMARK  178  A    between atoms: _450  and  _452
REMARK  179  A    between atoms: _452  and  _453
REMARK  180  A    between atoms: _452  and  _455
REMARK  181  A    between atoms: _455  and  _456
REMARK  182  A    between atoms: _461  and  _462
REMARK  183  A    between atoms: _464  and  _466
REMARK  184  A    between atoms: _466  and  _467
REMARK  185  A    between atoms: _466  and  _469
REMARK  186  A    between atoms: _469  and  _470
REMARK  187  A    between atoms: _470  and  _471
REMARK  188  A    between atoms: _471  and  _472
REMARK  189  A    between atoms: _472  and  _473
REMARK  190  A    between atoms: _477  and  _479
REMARK  191  A    between atoms: _479  and  _480
REMARK  192  A    between atoms: _479  and  _482
REMARK  193  A    between atoms: _482  and  _483
REMARK  194  A    between atoms: _486  and  _488
REMARK  195  A    between atoms: _488  and  _489
REMARK  196  A    between atoms: _488  and  _491
REMARK  197  A    between atoms: _494  and  _496
REMARK  198  A    between atoms: _496  and  _497
REMARK  199  A    between atoms: _496  and  _499
REMARK  200  A    between atoms: _499  and  _500
REMARK  201  A    between atoms: _503  and  _505
REMARK  202  A    between atoms: _505  and  _506
REMARK  203  A    between atoms: _505  and  _508
REMARK  204  A    between atoms: _508  and  _509
REMARK  205  A    between atoms: _511  and  _513
REMARK  206  A    between atoms: _513  and  _514
REMARK  207  A    between atoms: _516  and  _518
REMARK  208  A    between atoms: _518  and  _519
REMARK  209  A    between atoms: _518  and  _521
REMARK  210  A    between atoms: _521  and  _522
REMARK  211  A    between atoms: _525  and  _527
REMARK  212  A    between atoms: _527  and  _528
REMARK  213  A    between atoms: _527  and  _530
REMARK  214  A    between atoms: _530  and  _531
REMARK  215  A    between atoms: _534  and  _536
REMARK  216  A    between atoms: _536  and  _537
REMARK  217  A    between atoms: _536  and  _539
REMARK  218  A    between atoms: _539  and  _540
REMARK  219  A    between atoms: _545  and  _547
REMARK  220  A    between atoms: _547  and  _548
REMARK  221  A    between atoms: _547  and  _550
REMARK  222  A    between atoms: _550  and  _551
REMARK  223  A    between atoms: _554  and  _556
REMARK  224  A    between atoms: _556  and  _557
REMARK  225  A    between atoms: _556  and  _559
REMARK  226  A    between atoms: _559  and  _560
REMARK  227  A    between atoms: _560  and  _561
REMARK  228  A    between atoms: _561  and  _562
REMARK  229  A    between atoms: _571  and  _573
REMARK  230  A    between atoms: _573  and  _574
REMARK  231  A    between atoms: _573  and  _576
REMARK  232  A    between atoms: _576  and  _577
REMARK  233  A    between atoms: _580  and  _582
REMARK  234  A    between atoms: _582  and  _583
REMARK  235  A    between atoms: _585  and  _587
REMARK  236  A    between atoms: _587  and  _588
REMARK  237  A    between atoms: _587  and  _590
REMARK  238  A    between atoms: _590  and  _591
REMARK  239  A    between atoms: _591  and  _592
REMARK  240  A    between atoms: _592  and  _593
REMARK  241  A    between atoms: _602  and  _604
REMARK  242  A    between atoms: _604  and  _605
REMARK  243  A    between atoms: _604  and  _607
REMARK  244  A    between atoms: _607  and  _608
REMARK  245  A    between atoms: _608  and  _609
REMARK  246  A    between atoms: _609  and  _610
REMARK  247  A    between atoms: _610  and  _611
REMARK  248  A    between atoms: _615  and  _617
REMARK  249  A    between atoms: _617  and  _618
REMARK  250  A    between atoms: _617  and  _620
REMARK  251  A    between atoms: _620  and  _621
REMARK  252  A    between atoms: _627  and  _629
REMARK  253  A    between atoms: _629  and  _630
REMARK  254  A    between atoms: _633  and  _635
REMARK  255  A    between atoms: _635  and  _636
REMARK  256  A    between atoms: _635  and  _638
REMARK  257  A    between atoms: _638  and  _639
REMARK  258  A    between atoms: _642  and  _644
REMARK  259  A    between atoms: _644  and  _645
REMARK  260  A    between atoms: _644  and  _647
REMARK  261  A    between atoms: _647  and  _648
REMARK  262  A    between atoms: _650  and  _652
REMARK  263  A    between atoms: _652  and  _653
REMARK  264  A    between atoms: _652  and  _655
REMARK  265  A    between atoms: _655  and  _656
REMARK  266  A    between atoms: _656  and  _657
REMARK  267  A    between atoms: _662  and  _664
REMARK  268  A    between atoms: _664  and  _665
REMARK  269  A    between atoms: _664  and  _667
REMARK  270  A    between atoms: _667  and  _668
REMARK  271  A    between atoms: _670  and  _672
REMARK  272  A    between atoms: _672  and  _673
REMARK  273  A    between atoms: _672  and  _675
REMARK  274  A    between atoms: _675  and  _676
REMARK  275  A    between atoms: _679  and  _681
REMARK  276  A    between atoms: _681  and  _682
REMARK  277  A    between atoms: _684  and  _686
REMARK  278  A    between atoms: _686  and  _687
REMARK  279  A    between atoms: _686  and  _689
REMARK  280  A    between atoms: _689  and  _690
REMARK  281  A    between atoms: _693  and  _695
REMARK  282  A    between atoms: _695  and  _696
REMARK  283  A    between atoms: _695  and  _698
REMARK  284  A    between atoms: _701  and  _703
REMARK  285  A    between atoms: _703  and  _704
REMARK  286  A    between atoms: _706  and  _708
REMARK  287  A    between atoms: _708  and  _709
REMARK  288  A    between atoms: _712  and  _714
REMARK  289  A    between atoms: _714  and  _715
REMARK  290  A    between atoms: _714  and  _717
REMARK  291  A    between atoms: _720  and  _722
REMARK  292  A    between atoms: _722  and  _723
REMARK  293  A    between atoms: _722  and  _725
REMARK  294  A    between atoms: _725  and  _726
REMARK  295  A    between atoms: _726  and  _727
REMARK  296  A    between atoms: _729  and  _731
REMARK  297  A    between atoms: _731  and  _732
REMARK  298  A    between atoms: _731  and  _734
REMARK  299  A    between atoms: _734  and  _735
REMARK  300  A    between atoms: _735  and  _736
REMARK                            x       y       z     vdW  Elec       q    Type
REMARK                         _______ _______ _______ _____ _____    ______ ____
ROOT
ATOM      1  C   ILE A   2      53.508  -2.753   5.299  0.00  0.00    +0.241 C 
ATOM      2  O   ILE A   2      52.997  -3.342   6.247  0.00  0.00    -0.273 OA
ATOM      3  N   ALA A   3      53.902  -3.394   4.199  0.00  0.00    -0.297 N 
ATOM      4  H   ALA A   3      54.300  -2.862   3.399  0.00  0.00    +0.150 HD
ENDROOT
BRANCH   3   5
ATOM      5  CA  ALA A   3      53.772  -4.850   4.120  0.00  0.00    +0.149 C 
ATOM      6  CB  ALA A   3      54.088  -5.330   2.728  0.00  0.00    +0.031 C 
BRANCH   5   7
ATOM      7  C   ALA A   3      54.749  -5.501   5.090  0.00  0.00    +0.241 C 
ATOM      8  N   ARG A   4      54.381  -6.652   5.652  0.00  0.00    -0.298 N 
ATOM      9  H   ARG A   4      53.431  -7.035   5.474  0.00  0.00    +0.150 HD
ATOM     10  O   ALA A   3      55.828  -4.950   5.332  0.00  0.00    -0.273 OA
BRANCH   8  11
ATOM     11  CA  ARG A   4      55.316  -7.383   6.525  0.00  0.00    +0.137 C 
BRANCH  11  12
ATOM     12  C   ARG A   4      55.860  -8.530   5.640  0.00  0.00    +0.227 C 
ATOM     13  O   ARG A   4      55.162  -9.032   4.739  0.00  0.00    -0.286 OA
ENDBRANCH  11  12
BRANCH  11  14
ATOM     14  CB  ARG A   4      54.616  -7.970   7.772  0.00  0.00    +0.031 C 
BRANCH  14  15
ATOM     15  CG  ARG A   4      53.936  -6.955   8.724  0.00  0.00    +0.045 C 
BRANCH  15  16
ATOM     16  CD  ARG A   4      54.884  -5.837   9.130  0.00  0.00    +0.174 C 
BRANCH  16  17
ATOM     17  NE  ARG A   4      54.294  -4.867  10.056  0.00  0.00    -0.265 N 
ATOM     18  CZ  ARG A   4      54.342  -4.964  11.390  0.00  0.00    +0.342 C 
ATOM     19  NH2 ARG A   4      53.795  -4.016  12.136  0.00  0.00    -0.292 N 
ATOM     20 HH21 ARG A   4      53.829  -4.086  13.173  0.00  0.00    +0.255 HD
ATOM     21 HH22 ARG A   4      53.331  -3.202  11.685  0.00  0.00    +0.255 HD
ATOM     22  NH1 ARG A   4      54.953  -5.997  11.985  0.00  0.00    -0.292 N 
ATOM     23 HH11 ARG A   4      54.981  -6.057  13.023  0.00  0.00    +0.255 HD
ATOM     24 HH12 ARG A   4      55.399  -6.739  11.409  0.00  0.00    +0.255 HD
ATOM     25  HE  ARG A   4      53.804  -4.046   9.648  0.00  0.00    +0.259 HD
ENDBRANCH  16  17
ENDBRANCH  15  16
ENDBRANCH  14  15
ENDBRANCH  11  14
ENDBRANCH   8  11
ENDBRANCH   5   7
ENDBRANCH   3   5
BRANCH   1  26
ATOM     26  CA  ILE A   2      53.700  -1.236   5.355  0.00  0.00    +0.148 C 
BRANCH  26  29
ATOM     27  C   GLU A   1      55.475  -0.243   4.020  0.00  0.00    +0.238 C 
ATOM     28  O   GLU A   1      56.287  -0.400   4.921  0.00  0.00    -0.274 OA
ATOM     29  N   ILE A   2      54.199  -0.619   4.126  0.00  0.00    -0.297 N 
ATOM     30  H   ILE A   2      53.552  -0.472   3.325  0.00  0.00    +0.150 HD
BRANCH  27  31
ATOM     31  CA  GLU A   1      55.913   0.412   2.731  0.00  0.00    +0.145 C 
BRANCH  31  32
ATOM     32  N   GLU A   1      55.300  -0.138   1.547  0.00  0.00    -0.238 NA
ATOM     33  H   GLU A   1      54.929   0.505   0.819  0.00  0.00    +0.142 HD
ENDBRANCH  31  32
BRANCH  31  34
ATOM     34  CB  GLU A   1      55.620   1.902   2.811  0.00  0.00    +0.038 C 
BRANCH  34  35
ATOM     35  CG  GLU A   1      55.648   2.416   4.218  0.00  0.00    +0.116 C 
BRANCH  35  36
ATOM     36  CD  GLU A   1      56.893   3.172   4.514  0.00  0.00    +0.365 C 
ATOM     37  OE2 GLU A   1      56.747   4.299   5.050  0.00  0.00    -0.246 OA
ATOM     38  OE1 GLU A   1      58.000   2.638   4.211  0.00  0.00    -0.246 OA
ENDBRANCH  35  36
ENDBRANCH  34  35
ENDBRANCH  31  34
ENDBRANCH  27  31
ENDBRANCH  26  29
BRANCH  26  39
ATOM     39  CB  ILE A   2      52.357  -0.587   5.804  0.00  0.00    +0.027 C 
ATOM     40  CG2 ILE A   2      52.588   0.885   6.084  0.00  0.00    +0.002 C 
BRANCH  39  41
ATOM     41  CG1 ILE A   2      51.273  -0.823   4.730  0.00  0.00    +0.002 C 
ATOM     42  CD1 ILE A   2      49.888  -0.113   4.966  0.00  0.00    +0.000 C 
ENDBRANCH  39  41
ENDBRANCH  26  39
ENDBRANCH   1  26
TORSDOF 17
REMARK  Name = ../refined-set-2016/4gid/4gid_pocket.pdb
REMARK  300 active torsions:
REMARK  status: ('A' for Active; 'I' for Inactive)
REMARK    1  A    between atoms: _1  and  _3
REMARK    2  A    between atoms: _3  and  _4
REMARK    3  A    between atoms: _6  and  _8
REMARK    4  A    between atoms: _8  and  _9
REMARK    5  A    between atoms: _8  and  _11
REMARK    6  A    between atoms: _11  and  _12
REMARK    7  A    between atoms: _12  and  _13
REMARK    8  A    between atoms: _13  and  _14
REMARK    9  A    between atoms: _14  and  _15
REMARK   10  A    between atoms: _19  and  _21
REMARK   11  A    between atoms: _21  and  _22
REMARK   12  A    between atoms: _21  and  _24
REMARK   13  A    between atoms: _24  and  _25
REMARK   14  A    between atoms: _27  and  _29
REMARK   15  A    between atoms: _29  and  _30
REMARK   16  A    between atoms: _32  and  _34
REMARK   17  A    between atoms: _34  and  _35
REMARK   18  A    between atoms: _34  and  _37
REMARK   19  A    between atoms: _37  and  _38
REMARK   20  A    between atoms: _38  and  _39
REMARK   21  A    between atoms: _44  and  _46
REMARK   22  A    between atoms: _46  and  _47
REMARK   23  A    between atoms: _49  and  _51
REMARK   24  A    between atoms: _51  and  _52
REMARK   25  A    between atoms: _51  and  _54
REMARK   26  A    between atoms: _54  and  _55
REMARK   27  A    between atoms: _60  and  _61
REMARK   28  A    between atoms: _63  and  _65
REMARK   29  A    between atoms: _65  and  _66
REMARK   30  A    between atoms: _65  and  _68
REMARK   31  A    between atoms: _68  and  _69
REMARK   32  A    between atoms: _74  and  _75
REMARK   33  A    between atoms: _77  and  _79
REMARK   34  A    between atoms: _79  and  _80
REMARK   35  A    between atoms: _79  and  _82
REMARK   36  A    between atoms: _82  and  _83
REMARK   37  A    between atoms: _86  and  _88
REMARK   38  A    between atoms: _88  and  _89
REMARK   39  A    between atoms: _88  and  _91
REMARK   40  A    between atoms: _94  and  _96
REMARK   41  A    between atoms: _96  and  _97
REMARK   42  A    between atoms: _96  and  _99
REMARK   43  A    between atoms: _99  and  _100
REMARK   44  A    between atoms: _103  and  _105
REMARK   45  A    between atoms: _105  and  _106
REMARK   46  A    between atoms: _105  and  _108
REMARK   47  A    between atoms: _108  and  _109
REMARK   48  A    between atoms: _112  and  _114
REMARK   49  A    between atoms: _114  and  _115
REMARK   50  A    between atoms: _117  and  _119
REMARK   51  A    between atoms: _119  and  _120
REMARK   52  A    between atoms: _119  and  _122
REMARK   53  A    between atoms: _122  and  _123
REMARK   54  A    between atoms: _125  and  _127
REMARK   55  A    between atoms: _127  and  _128
REMARK   56  A    between atoms: _127  and  _130
REMARK   57  A    between atoms: _130  and  _131
REMARK   58  A    between atoms: _133  and  _135
REMARK   59  A    between atoms: _135  and  _136
REMARK   60  A    between atoms: _135  and  _138
REMARK   61  A    between atoms: _138  and  _139
REMARK   62  A    between atoms: _144  and  _146
REMARK   63  A    between atoms: _146  and  _147
REMARK   64  A    between atoms: _146  and  _149
REMARK   65  A    between atoms: _149  and  _150
REMARK   66  A    between atoms: _155  and  _156
REMARK   67  A    between atoms: _158  and  _160
REMARK   68  A    between atoms: _160  and  _161
REMARK   69  A    between atoms: _160  and  _163
REMARK   70  A    between atoms: _167  and  _168
REMARK   71  A    between atoms: _173  and  _175
REMARK   72  A    between atoms: _175  and  _176
REMARK   73  A    between atoms: _175  and  _178
REMARK   74  A    between atoms: _178  and  _179
REMARK   75  A    between atoms: _184  and  _185
REMARK   76  A    between atoms: _187  and  _189
REMARK   77  A    between atoms: _189  and  _190
REMARK   78  A    between atoms: _189  and  _192
REMARK   79  A    between atoms: _192  and  _193
REMARK   80  A    between atoms: _196  and  _198
REMARK   81  A    between atoms: _198  and  _199
REMARK   82  A    between atoms: _198  and  _201
REMARK   83  A    between atoms: _201  and  _202
REMARK   84  A    between atoms: _202  and  _203
REMARK   85  A    between atoms: _208  and  _210
REMARK   86  A    between atoms: _210  and  _211
REMARK   87  A    between atoms: _213  and  _215
REMARK   88  A    between atoms: _215  and  _216
REMARK   89  A    between atoms: _215  and  _218
REMARK   90  A    between atoms: _218  and  _219
REMARK   91  A    between atoms: _219  and  _220
REMARK   92  A    between atoms: _220  and  _221
REMARK   93  A    between atoms: _221  and  _222
REMARK   94  A    between atoms: _226  and  _228
REMARK   95  A    between atoms: _228  and  _229
REMARK   96  A    between atoms: _228  and  _231
REMARK   97  A    between atoms: _231  and  _232
REMARK   98  A    between atoms: _242  and  _244
REMARK   99  A    between atoms: _244  and  _245
REMARK  100  A    between atoms: _244  and  _247
REMARK  101  A    between atoms: _247  and  _248
REMARK  102  A    between atoms: _251  and  _253
REMARK  103  A    between atoms: _253  and  _254
REMARK  104  A    between atoms: _253  and  _256
REMARK  105  A    between atoms: _256  and  _257
REMARK  106  A    between atoms: _257  and  _258
REMARK  107  A    between atoms: _258  and  _259
REMARK  108  A    between atoms: _259  and  _260
REMARK  109  A    between atoms: _264  and  _266
REMARK  110  A    between atoms: _266  and  _267
REMARK  111  A    between atoms: _266  and  _269
REMARK  112  A    between atoms: _269  and  _270
REMARK  113  A    between atoms: _276  and  _278
REMARK  114  A    between atoms: _278  and  _279
REMARK  115  A    between atoms: _278  and  _281
REMARK  116  A    between atoms: _281  and  _282
REMARK  117  A    between atoms: _288  and  _290
REMARK  118  A    between atoms: _290  and  _291
REMARK  119  A    between atoms: _290  and  _293
REMARK  120  A    between atoms: _293  and  _294
REMARK  121  A    between atoms: _297  and  _299
REMARK  122  A    between atoms: _299  and  _300
REMARK  123  A    between atoms: _299  and  _302
REMARK  124  A    between atoms: _302  and  _303
REMARK  125  A    between atoms: _305  and  _307
REMARK  126  A    between atoms: _307  and  _308
REMARK  127  A    between atoms: _307  and  _310
REMARK  128  A    between atoms: _310  and  _311
REMARK  129  A    between atoms: _321  and  _323
REMARK  130  A    between atoms: _323  and  _324
REMARK  131  A    between atoms: _326  and  _328
REMARK  132  A    between atoms: _328  and  _329
REMARK  133  A    between atoms: _328  and  _331
REMARK  134  A    between atoms: _331  and  _332
REMARK  135  A    between atoms: _335  and  _337
REMARK  136  A    between atoms: _337  and  _338
REMARK  137  A    between atoms: _337  and  _340
REMARK  138  A    between atoms: _340  and  _341
REMARK  139  A    between atoms: _344  and  _346
REMARK  140  A    between atoms: _346  and  _347
REMARK  141  A    between atoms: _349  and  _351
REMARK  142  A    between atoms: _351  and  _352
REMARK  143  A    between atoms: _355  and  _357
REMARK  144  A    between atoms: _357  and  _358
REMARK  145  A    between atoms: _357  and  _360
REMARK  146  A    between atoms: _360  and  _361
REMARK  147  A    between atoms: _366  and  _367
REMARK  148  A    between atoms: _369  and  _371
REMARK  149  A    between atoms: _371  and  _372
REMARK  150  A    between atoms: _371  and  _374
REMARK  151  A    between atoms: _374  and  _375
REMARK  152  A    between atoms: _375  and  _376
REMARK  153  A    between atoms: _379  and  _381
REMARK  154  A    between atoms: _381  and  _382
REMARK  155  A    between atoms: _381  and  _384
REMARK  156  A    between atoms: _384  and  _385
REMARK  157  A    between atoms: _388  and  _390
REMARK  158  A    between atoms: _390  and  _391
REMARK  159  A    between atoms: _394  and  _396
REMARK  160  A    between atoms: _396  and  _397
REMARK  161  A    between atoms: _396  and  _399
REMARK  162  A    between atoms: _399  and  _400
REMARK  163  A    between atoms: _400  and  _401
REMARK  164  A    between atoms: _401  and  _402
REMARK  165  A    between atoms: _411  and  _413
REMARK  166  A    between atoms: _413  and  _414
REMARK  167  A    between atoms: _413  and  _416
REMARK  168  A    between atoms: _416  and  _417
REMARK  169  A    between atoms: _420  and  _422
REMARK  170  A    between atoms: _422  and  _423
REMARK  171  A    between atoms: _422  and  _425
REMARK  172  A    between atoms: _425  and  _426
REMARK  173  A    between atoms: _436  and  _438
REMARK  174  A    between atoms: _438  and  _439
REMARK  175  A    between atoms: _438  and  _441
REMARK  176  A    between atoms: _441  and  _442
REMARK  177  A    between atoms: _447  and  _448
REMARK  178  A    between atoms: _450  and  _452
REMARK  179  A    between atoms: _452  and  _453
REMARK  180  A    between atoms: _452  and  _455
REMARK  181  A    between atoms: _455  and  _456
REMARK  182  A    between atoms: _461  and  _462
REMARK  183  A    between atoms: _464  and  _466
REMARK  184  A    between atoms: _466  and  _467
REMARK  185  A    between atoms: _466  and  _469
REMARK  186  A    between atoms: _469  and  _470
REMARK  187  A    between atoms: _470  and  _471
REMARK  188  A    between atoms: _471  and  _472
REMARK  189  A    between atoms: _472  and  _473
REMARK  190  A    between atoms: _477  and  _479
REMARK  191  A    between atoms: _479  and  _480
REMARK  192  A    between atoms: _479  and  _482
REMARK  193  A    between atoms: _482  and  _483
REMARK  194  A    between atoms: _486  and  _488
REMARK  195  A    between atoms: _488  and  _489
REMARK  196  A    between atoms: _488  and  _491
REMARK  197  A    between atoms: _494  and  _496
REMARK  198  A    between atoms: _496  and  _497
REMARK  199  A    between atoms: _496  and  _499
REMARK  200  A    between atoms: _499  and  _500
REMARK  201  A    between atoms: _503  and  _505
REMARK  202  A    between atoms: _505  and  _506
REMARK  203  A    between atoms: _505  and  _508
REMARK  204  A    between atoms: _508  and  _509
REMARK  205  A    between atoms: _511  and  _513
REMARK  206  A    between atoms: _513  and  _514
REMARK  207  A    between atoms: _516  and  _518
REMARK  208  A    between atoms: _518  and  _519
REMARK  209  A    between atoms: _518  and  _521
REMARK  210  A    between atoms: _521  and  _522
REMARK  211  A    between atoms: _525  and  _527
REMARK  212  A    between atoms: _527  and  _528
REMARK  213  A    between atoms: _527  and  _530
REMARK  214  A    between atoms: _530  and  _531
REMARK  215  A    between atoms: _534  and  _536
REMARK  216  A    between atoms: _536  and  _537
REMARK  217  A    between atoms: _536  and  _539
REMARK  218  A    between atoms: _539  and  _540
REMARK  219  A    between atoms: _545  and  _547
REMARK  220  A    between atoms: _547  and  _548
REMARK  221  A    between atoms: _547  and  _550
REMARK  222  A    between atoms: _550  and  _551
REMARK  223  A    between atoms: _554  and  _556
REMARK  224  A    between atoms: _556  and  _557
REMARK  225  A    between atoms: _556  and  _559
REMARK  226  A    between atoms: _559  and  _560
REMARK  227  A    between atoms: _560  and  _561
REMARK  228  A    between atoms: _561  and  _562
REMARK  229  A    between atoms: _571  and  _573
REMARK  230  A    between atoms: _573  and  _574
REMARK  231  A    between atoms: _573  and  _576
REMARK  232  A    between atoms: _576  and  _577
REMARK  233  A    between atoms: _580  and  _582
REMARK  234  A    between atoms: _582  and  _583
REMARK  235  A    between atoms: _585  and  _587
REMARK  236  A    between atoms: _587  and  _588
REMARK  237  A    between atoms: _587  and  _590
REMARK  238  A    between atoms: _590  and  _591
REMARK  239  A    between atoms: _591  and  _592
REMARK  240  A    between atoms: _592  and  _593
REMARK  241  A    between atoms: _602  and  _604
REMARK  242  A    between atoms: _604  and  _605
REMARK  243  A    between atoms: _604  and  _607
REMARK  244  A    between atoms: _607  and  _608
REMARK  245  A    between atoms: _608  and  _609
REMARK  246  A    between atoms: _609  and  _610
REMARK  247  A    between atoms: _610  and  _611
REMARK  248  A    between atoms: _615  and  _617
REMARK  249  A    between atoms: _617  and  _618
REMARK  250  A    between atoms: _617  and  _620
REMARK  251  A    between atoms: _620  and  _621
REMARK  252  A    between atoms: _627  and  _629
REMARK  253  A    between atoms: _629  and  _630
REMARK  254  A    between atoms: _633  and  _635
REMARK  255  A    between atoms: _635  and  _636
REMARK  256  A    between atoms: _635  and  _638
REMARK  257  A    between atoms: _638  and  _639
REMARK  258  A    between atoms: _642  and  _644
REMARK  259  A    between atoms: _644  and  _645
REMARK  260  A    between atoms: _644  and  _647
REMARK  261  A    between atoms: _647  and  _648
REMARK  262  A    between atoms: _650  and  _652
REMARK  263  A    between atoms: _652  and  _653
REMARK  264  A    between atoms: _652  and  _655
REMARK  265  A    between atoms: _655  and  _656
REMARK  266  A    between atoms: _656  and  _657
REMARK  267  A    between atoms: _662  and  _664
REMARK  268  A    between atoms: _664  and  _665
REMARK  269  A    between atoms: _664  and  _667
REMARK  270  A    between atoms: _667  and  _668
REMARK  271  A    between atoms: _670  and  _672
REMARK  272  A    between atoms: _672  and  _673
REMARK  273  A    between atoms: _672  and  _675
REMARK  274  A    between atoms: _675  and  _676
REMARK  275  A    between atoms: _679  and  _681
REMARK  276  A    between atoms: _681  and  _682
REMARK  277  A    between atoms: _684  and  _686
REMARK  278  A    between atoms: _686  and  _687
REMARK  279  A    between atoms: _686  and  _689
REMARK  280  A    between atoms: _689  and  _690
REMARK  281  A    between atoms: _693  and  _695
REMARK  282  A    between atoms: _695  and  _696
REMARK  283  A    between atoms: _695  and  _698
REMARK  284  A    between atoms: _701  and  _703
REMARK  285  A    between atoms: _703  and  _704
REMARK  286  A    between atoms: _706  and  _708
REMARK  287  A    between atoms: _708  and  _709
REMARK  288  A    between atoms: _712  and  _714
REMARK  289  A    between atoms: _714  and  _715
REMARK  290  A    between atoms: _714  and  _717
REMARK  291  A    between atoms: _720  and  _722
REMARK  292  A    between atoms: _722  and  _723
REMARK  293  A    between atoms: _722  and  _725
REMARK  294  A    between atoms: _725  and  _726
REMARK  295  A    between atoms: _726  and  _727
REMARK  296  A    between atoms: _729  and  _731
REMARK  297  A    between atoms: _731  and  _732
REMARK  298  A    between atoms: _731  and  _734
REMARK  299  A    between atoms: _734  and  _735
REMARK  300  A    between atoms: _735  and  _736
REMARK                            x       y       z     vdW  Elec       q    Type
REMARK                         _______ _______ _______ _____ _____    ______ ____
ROOT
ATOM      1  CA  LEU A   1      30.492  -1.055   0.261  0.00  0.00    +0.133 C 
ENDROOT
BRANCH   1   2
ATOM      2  N   LEU A   1      30.884  -0.102  -0.773  0.00  0.00    -0.239 NA
ATOM      3  H   LEU A   1      31.169   0.861  -0.501  0.00  0.00    +0.142 HD
ENDBRANCH   1   2
BRANCH   1   4
ATOM      4  C   LEU A   1      29.058  -0.737   0.642  0.00  0.00    +0.224 C 
ATOM      5  O   LEU A   1      28.742   0.389   1.013  0.00  0.00    -0.287 OA
ENDBRANCH   1   4
BRANCH   1   6
ATOM      6  CB  LEU A   1      31.423  -0.954   1.494  0.00  0.00    +0.025 C 
BRANCH   6   7
ATOM      7  CG  LEU A   1      32.929  -0.978   1.182  0.00  0.00    +0.002 C 
ATOM      8  CD2 LEU A   1      33.721  -1.043   2.480  0.00  0.00    +0.000 C 
ATOM      9  CD1 LEU A   1      33.257  -2.182   0.295  0.00  0.00    +0.000 C 
ENDBRANCH   6   7
ENDBRANCH   1   6
TORSDOF 4
REMARK  Name = ../refined-set-2016/4gid/4gid_pocket.pdb
REMARK  300 active torsions:
REMARK  status: ('A' for Active; 'I' for Inactive)
REMARK    1  A    between atoms: _1  and  _3
REMARK    2  A    between atoms: _3  and  _4
REMARK    3  A    between atoms: _6  and  _8
REMARK    4  A    between atoms: _8  and  _9
REMARK    5  A    between atoms: _8  and  _11
REMARK    6  A    between atoms: _11  and  _12
REMARK    7  A    between atoms: _12  and  _13
REMARK    8  A    between atoms: _13  and  _14
REMARK    9  A    between atoms: _14  and  _15
REMARK   10  A    between atoms: _19  and  _21
REMARK   11  A    between atoms: _21  and  _22
REMARK   12  A    between atoms: _21  and  _24
REMARK   13  A    between atoms: _24  and  _25
REMARK   14  A    between atoms: _27  and  _29
REMARK   15  A    between atoms: _29  and  _30
REMARK   16  A    between atoms: _32  and  _34
REMARK   17  A    between atoms: _34  and  _35
REMARK   18  A    between atoms: _34  and  _37
REMARK   19  A    between atoms: _37  and  _38
REMARK   20  A    between atoms: _38  and  _39
REMARK   21  A    between atoms: _44  and  _46
REMARK   22  A    between atoms: _46  and  _47
REMARK   23  A    between atoms: _49  and  _51
REMARK   24  A    between atoms: _51  and  _52
REMARK   25  A    between atoms: _51  and  _54
REMARK   26  A    between atoms: _54  and  _55
REMARK   27  A    between atoms: _60  and  _61
REMARK   28  A    between atoms: _63  and  _65
REMARK   29  A    between atoms: _65  and  _66
REMARK   30  A    between atoms: _65  and  _68
REMARK   31  A    between atoms: _68  and  _69
REMARK   32  A    between atoms: _74  and  _75
REMARK   33  A    between atoms: _77  and  _79
REMARK   34  A    between atoms: _79  and  _80
REMARK   35  A    between atoms: _79  and  _82
REMARK   36  A    between atoms: _82  and  _83
REMARK   37  A    between atoms: _86  and  _88
REMARK   38  A    between atoms: _88  and  _89
REMARK   39  A    between atoms: _88  and  _91
REMARK   40  A    between atoms: _94  and  _96
REMARK   41  A    between atoms: _96  and  _97
REMARK   42  A    between atoms: _96  and  _99
REMARK   43  A    between atoms: _99  and  _100
REMARK   44  A    between atoms: _103  and  _105
REMARK   45  A    between atoms: _105  and  _106
REMARK   46  A    between atoms: _105  and  _108
REMARK   47  A    between atoms: _108  and  _109
REMARK   48  A    between atoms: _112  and  _114
REMARK   49  A    between atoms: _114  and  _115
REMARK   50  A    between atoms: _117  and  _119
REMARK   51  A    between atoms: _119  and  _120
REMARK   52  A    between atoms: _119  and  _122
REMARK   53  A    between atoms: _122  and  _123
REMARK   54  A    between atoms: _125  and  _127
REMARK   55  A    between atoms: _127  and  _128
REMARK   56  A    between atoms: _127  and  _130
REMARK   57  A    between atoms: _130  and  _131
REMARK   58  A    between atoms: _133  and  _135
REMARK   59  A    between atoms: _135  and  _136
REMARK   60  A    between atoms: _135  and  _138
REMARK   61  A    between atoms: _138  and  _139
REMARK   62  A    between atoms: _144  and  _146
REMARK   63  A    between atoms: _146  and  _147
REMARK   64  A    between atoms: _146  and  _149
REMARK   65  A    between atoms: _149  and  _150
REMARK   66  A    between atoms: _155  and  _156
REMARK   67  A    between atoms: _158  and  _160
REMARK   68  A    between atoms: _160  and  _161
REMARK   69  A    between atoms: _160  and  _163
REMARK   70  A    between atoms: _167  and  _168
REMARK   71  A    between atoms: _173  and  _175
REMARK   72  A    between atoms: _175  and  _176
REMARK   73  A    between atoms: _175  and  _178
REMARK   74  A    between atoms: _178  and  _179
REMARK   75  A    between atoms: _184  and  _185
REMARK   76  A    between atoms: _187  and  _189
REMARK   77  A    between atoms: _189  and  _190
REMARK   78  A    between atoms: _189  and  _192
REMARK   79  A    between atoms: _192  and  _193
REMARK   80  A    between atoms: _196  and  _198
REMARK   81  A    between atoms: _198  and  _199
REMARK   82  A    between atoms: _198  and  _201
REMARK   83  A    between atoms: _201  and  _202
REMARK   84  A    between atoms: _202  and  _203
REMARK   85  A    between atoms: _208  and  _210
REMARK   86  A    between atoms: _210  and  _211
REMARK   87  A    between atoms: _213  and  _215
REMARK   88  A    between atoms: _215  and  _216
REMARK   89  A    between atoms: _215  and  _218
REMARK   90  A    between atoms: _218  and  _219
REMARK   91  A    between atoms: _219  and  _220
REMARK   92  A    between atoms: _220  and  _221
REMARK   93  A    between atoms: _221  and  _222
REMARK   94  A    between atoms: _226  and  _228
REMARK   95  A    between atoms: _228  and  _229
REMARK   96  A    between atoms: _228  and  _231
REMARK   97  A    between atoms: _231  and  _232
REMARK   98  A    between atoms: _242  and  _244
REMARK   99  A    between atoms: _244  and  _245
REMARK  100  A    between atoms: _244  and  _247
REMARK  101  A    between atoms: _247  and  _248
REMARK  102  A    between atoms: _251  and  _253
REMARK  103  A    between atoms: _253  and  _254
REMARK  104  A    between atoms: _253  and  _256
REMARK  105  A    between atoms: _256  and  _257
REMARK  106  A    between atoms: _257  and  _258
REMARK  107  A    between atoms: _258  and  _259
REMARK  108  A    between atoms: _259  and  _260
REMARK  109  A    between atoms: _264  and  _266
REMARK  110  A    between atoms: _266  and  _267
REMARK  111  A    between atoms: _266  and  _269
REMARK  112  A    between atoms: _269  and  _270
REMARK  113  A    between atoms: _276  and  _278
REMARK  114  A    between atoms: _278  and  _279
REMARK  115  A    between atoms: _278  and  _281
REMARK  116  A    between atoms: _281  and  _282
REMARK  117  A    between atoms: _288  and  _290
REMARK  118  A    between atoms: _290  and  _291
REMARK  119  A    between atoms: _290  and  _293
REMARK  120  A    between atoms: _293  and  _294
REMARK  121  A    between atoms: _297  and  _299
REMARK  122  A    between atoms: _299  and  _300
REMARK  123  A    between atoms: _299  and  _302
REMARK  124  A    between atoms: _302  and  _303
REMARK  125  A    between atoms: _305  and  _307
REMARK  126  A    between atoms: _307  and  _308
REMARK  127  A    between atoms: _307  and  _310
REMARK  128  A    between atoms: _310  and  _311
REMARK  129  A    between atoms: _321  and  _323
REMARK  130  A    between atoms: _323  and  _324
REMARK  131  A    between atoms: _326  and  _328
REMARK  132  A    between atoms: _328  and  _329
REMARK  133  A    between atoms: _328  and  _331
REMARK  134  A    between atoms: _331  and  _332
REMARK  135  A    between atoms: _335  and  _337
REMARK  136  A    between atoms: _337  and  _338
REMARK  137  A    between atoms: _337  and  _340
REMARK  138  A    between atoms: _340  and  _341
REMARK  139  A    between atoms: _344  and  _346
REMARK  140  A    between atoms: _346  and  _347
REMARK  141  A    between atoms: _349  and  _351
REMARK  142  A    between atoms: _351  and  _352
REMARK  143  A    between atoms: _355  and  _357
REMARK  144  A    between atoms: _357  and  _358
REMARK  145  A    between atoms: _357  and  _360
REMARK  146  A    between atoms: _360  and  _361
REMARK  147  A    between atoms: _366  and  _367
REMARK  148  A    between atoms: _369  and  _371
REMARK  149  A    between atoms: _371  and  _372
REMARK  150  A    between atoms: _371  and  _374
REMARK  151  A    between atoms: _374  and  _375
REMARK  152  A    between atoms: _375  and  _376
REMARK  153  A    between atoms: _379  and  _381
REMARK  154  A    between atoms: _381  and  _382
REMARK  155  A    between atoms: _381  and  _384
REMARK  156  A    between atoms: _384  and  _385
REMARK  157  A    between atoms: _388  and  _390
REMARK  158  A    between atoms: _390  and  _391
REMARK  159  A    between atoms: _394  and  _396
REMARK  160  A    between atoms: _396  and  _397
REMARK  161  A    between atoms: _396  and  _399
REMARK  162  A    between atoms: _399  and  _400
REMARK  163  A    between atoms: _400  and  _401
REMARK  164  A    between atoms: _401  and  _402
REMARK  165  A    between atoms: _411  and  _413
REMARK  166  A    between atoms: _413  and  _414
REMARK  167  A    between atoms: _413  and  _416
REMARK  168  A    between atoms: _416  and  _417
REMARK  169  A    between atoms: _420  and  _422
REMARK  170  A    between atoms: _422  and  _423
REMARK  171  A    between atoms: _422  and  _425
REMARK  172  A    between atoms: _425  and  _426
REMARK  173  A    between atoms: _436  and  _438
REMARK  174  A    between atoms: _438  and  _439
REMARK  175  A    between atoms: _438  and  _441
REMARK  176  A    between atoms: _441  and  _442
REMARK  177  A    between atoms: _447  and  _448
REMARK  178  A    between atoms: _450  and  _452
REMARK  179  A    between atoms: _452  and  _453
REMARK  180  A    between atoms: _452  and  _455
REMARK  181  A    between atoms: _455  and  _456
REMARK  182  A    between atoms: _461  and  _462
REMARK  183  A    between atoms: _464  and  _466
REMARK  184  A    between atoms: _466  and  _467
REMARK  185  A    between atoms: _466  and  _469
REMARK  186  A    between atoms: _469  and  _470
REMARK  187  A    between atoms: _470  and  _471
REMARK  188  A    between atoms: _471  and  _472
REMARK  189  A    between atoms: _472  and  _473
REMARK  190  A    between atoms: _477  and  _479
REMARK  191  A    between atoms: _479  and  _480
REMARK  192  A    between atoms: _479  and  _482
REMARK  193  A    between atoms: _482  and  _483
REMARK  194  A    between atoms: _486  and  _488
REMARK  195  A    between atoms: _488  and  _489
REMARK  196  A    between atoms: _488  and  _491
REMARK  197  A    between atoms: _494  and  _496
REMARK  198  A    between atoms: _496  and  _497
REMARK  199  A    between atoms: _496  and  _499
REMARK  200  A    between atoms: _499  and  _500
REMARK  201  A    between atoms: _503  and  _505
REMARK  202  A    between atoms: _505  and  _506
REMARK  203  A    between atoms: _505  and  _508
REMARK  204  A    between atoms: _508  and  _509
REMARK  205  A    between atoms: _511  and  _513
REMARK  206  A    between atoms: _513  and  _514
REMARK  207  A    between atoms: _516  and  _518
REMARK  208  A    between atoms: _518  and  _519
REMARK  209  A    between atoms: _518  and  _521
REMARK  210  A    between atoms: _521  and  _522
REMARK  211  A    between atoms: _525  and  _527
REMARK  212  A    between atoms: _527  and  _528
REMARK  213  A    between atoms: _527  and  _530
REMARK  214  A    between atoms: _530  and  _531
REMARK  215  A    between atoms: _534  and  _536
REMARK  216  A    between atoms: _536  and  _537
REMARK  217  A    between atoms: _536  and  _539
REMARK  218  A    between atoms: _539  and  _540
REMARK  219  A    between atoms: _545  and  _547
REMARK  220  A    between atoms: _547  and  _548
REMARK  221  A    between atoms: _547  and  _550
REMARK  222  A    between atoms: _550  and  _551
REMARK  223  A    between atoms: _554  and  _556
REMARK  224  A    between atoms: _556  and  _557
REMARK  225  A    between atoms: _556  and  _559
REMARK  226  A    between atoms: _559  and  _560
REMARK  227  A    between atoms: _560  and  _561
REMARK  228  A    between atoms: _561  and  _562
REMARK  229  A    between atoms: _571  and  _573
REMARK  230  A    between atoms: _573  and  _574
REMARK  231  A    between atoms: _573  and  _576
REMARK  232  A    between atoms: _576  and  _577
REMARK  233  A    between atoms: _580  and  _582
REMARK  234  A    between atoms: _582  and  _583
REMARK  235  A    between atoms: _585  and  _587
REMARK  236  A    between atoms: _587  and  _588
REMARK  237  A    between atoms: _587  and  _590
REMARK  238  A    between atoms: _590  and  _591
REMARK  239  A    between atoms: _591  and  _592
REMARK  240  A    between atoms: _592  and  _593
REMARK  241  A    between atoms: _602  and  _604
REMARK  242  A    between atoms: _604  and  _605
REMARK  243  A    between atoms: _604  and  _607
REMARK  244  A    between atoms: _607  and  _608
REMARK  245  A    between atoms: _608  and  _609
REMARK  246  A    between atoms: _609  and  _610
REMARK  247  A    between atoms: _610  and  _611
REMARK  248  A    between atoms: _615  and  _617
REMARK  249  A    between atoms: _617  and  _618
REMARK  250  A    between atoms: _617  and  _620
REMARK  251  A    between atoms: _620  and  _621
REMARK  252  A    between atoms: _627  and  _629
REMARK  253  A    between atoms: _629  and  _630
REMARK  254  A    between atoms: _633  and  _635
REMARK  255  A    between atoms: _635  and  _636
REMARK  256  A    between atoms: _635  and  _638
REMARK  257  A    between atoms: _638  and  _639
REMARK  258  A    between atoms: _642  and  _644
REMARK  259  A    between atoms: _644  and  _645
REMARK  260  A    between atoms: _644  and  _647
REMARK  261  A    between atoms: _647  and  _648
REMARK  262  A    between atoms: _650  and  _652
REMARK  263  A    between atoms: _652  and  _653
REMARK  264  A    between atoms: _652  and  _655
REMARK  265  A    between atoms: _655  and  _656
REMARK  266  A    between atoms: _656  and  _657
REMARK  267  A    between atoms: _662  and  _664
REMARK  268  A    between atoms: _664  and  _665
REMARK  269  A    between atoms: _664  and  _667
REMARK  270  A    between atoms: _667  and  _668
REMARK  271  A    between atoms: _670  and  _672
REMARK  272  A    between atoms: _672  and  _673
REMARK  273  A    between atoms: _672  and  _675
REMARK  274  A    between atoms: _675  and  _676
REMARK  275  A    between atoms: _679  and  _681
REMARK  276  A    between atoms: _681  and  _682
REMARK  277  A    between atoms: _684  and  _686
REMARK  278  A    between atoms: _686  and  _687
REMARK  279  A    between atoms: _686  and  _689
REMARK  280  A    between atoms: _689  and  _690
REMARK  281  A    between atoms: _693  and  _695
REMARK  282  A    between atoms: _695  and  _696
REMARK  283  A    between atoms: _695  and  _698
REMARK  284  A    between atoms: _701  and  _703
REMARK  285  A    between atoms: _703  and  _704
REMARK  286  A    between atoms: _706  and  _708
REMARK  287  A    between atoms: _708  and  _709
REMARK  288  A    between atoms: _712  and  _714
REMARK  289  A    between atoms: _714  and  _715
REMARK  290  A    between atoms: _714  and  _717
REMARK  291  A    between atoms: _720  and  _722
REMARK  292  A    between atoms: _722  and  _723
REMARK  293  A    between atoms: _722  and  _725
REMARK  294  A    between atoms: _725  and  _726
REMARK  295  A    between atoms: _726  and  _727
REMARK  296  A    between atoms: _729  and  _731
REMARK  297  A    between atoms: _731  and  _732
REMARK  298  A    between atoms: _731  and  _734
REMARK  299  A    between atoms: _734  and  _735
REMARK  300  A    between atoms: _735  and  _736
REMARK                            x       y       z     vdW  Elec       q    Type
REMARK                         _______ _______ _______ _____ _____    ______ ____
ROOT
ATOM      1  CA  TYR A   2      48.495   3.680   4.370  0.00  0.00    +0.153 C 
ENDROOT
BRANCH   1   3
ATOM      2  C   TRP A   1      50.618   3.402   3.277  0.00  0.00    +0.239 C 
ATOM      3  N   TYR A   2      49.891   4.063   4.164  0.00  0.00    -0.297 N 
ATOM      4  H   TYR A   2      50.308   4.845   4.708  0.00  0.00    +0.150 HD
ATOM      5  O   TRP A   1      50.183   2.411   2.667  0.00  0.00    -0.274 OA
BRANCH   2   6
ATOM      6  CA  TRP A   1      52.021   3.913   2.966  0.00  0.00    +0.149 C 
BRANCH   6   7
ATOM      7  N   TRP A   1      51.680   4.965   2.043  0.00  0.00    -0.238 NA
ATOM      8  H   TRP A   1      50.853   5.567   2.233  0.00  0.00    +0.142 HD
ENDBRANCH   6   7
BRANCH   6   9
ATOM      9  CB  TRP A   1      52.834   4.457   4.153  0.00  0.00    +0.054 C 
BRANCH   9  10
ATOM     10  CG  TRP A   1      52.235   5.503   5.044  0.00  0.00    -0.002 A 
ATOM     11  CD2 TRP A   1      52.390   5.574   6.460  0.00  0.00    +0.013 A 
ATOM     12  CE3 TRP A   1      52.991   4.742   7.412  0.00  0.00    +0.001 A 
ATOM     13  CZ3 TRP A   1      52.970   5.131   8.751  0.00  0.00    +0.000 A 
ATOM     14  CH2 TRP A   1      52.359   6.333   9.148  0.00  0.00    +0.001 A 
ATOM     15  CZ2 TRP A   1      51.766   7.166   8.235  0.00  0.00    +0.017 A 
ATOM     16  CE2 TRP A   1      51.787   6.775   6.889  0.00  0.00    +0.056 A 
ATOM     17  NE1 TRP A   1      51.287   7.404   5.781  0.00  0.00    -0.352 N 
ATOM     18  HE1 TRP A   1      50.786   8.315   5.777  0.00  0.00    +0.166 HD
ATOM     19  CD1 TRP A   1      51.556   6.634   4.673  0.00  0.00    +0.068 A 
ENDBRANCH   9  10
ENDBRANCH   6   9
ENDBRANCH   2   6
ENDBRANCH   1   3
BRANCH   1  20
ATOM     20  C   TYR A   2      47.871   4.570   3.324  0.00  0.00    +0.241 C 
ATOM     21  N   TYR A   3      46.551   4.519   3.177  0.00  0.00    -0.298 N 
ATOM     22  H   TYR A   3      45.984   3.826   3.707  0.00  0.00    +0.150 HD
ATOM     23  O   TYR A   2      48.587   5.307   2.638  0.00  0.00    -0.273 OA
BRANCH  21  24
ATOM     24  CA  TYR A   3      45.914   5.454   2.258  0.00  0.00    +0.141 C 
BRANCH  24  25
ATOM     25  C   TYR A   3      45.660   6.642   3.193  0.00  0.00    +0.227 C 
ATOM     26  O   TYR A   3      44.567   6.793   3.748  0.00  0.00    -0.286 OA
ENDBRANCH  24  25
BRANCH  24  27
ATOM     27  CB  TYR A   3      44.618   4.866   1.690  0.00  0.00    +0.054 C 
BRANCH  27  28
ATOM     28  CG  TYR A   3      44.897   3.911   0.548  0.00  0.00    -0.020 A 
ATOM     29  CD2 TYR A   3      44.837   2.527   0.727  0.00  0.00    -0.001 A 
ATOM     30  CE2 TYR A   3      45.134   1.652  -0.314  0.00  0.00    +0.036 A 
ATOM     31  CZ  TYR A   3      45.520   2.171  -1.565  0.00  0.00    +0.134 A 
ATOM     32  CE1 TYR A   3      45.589   3.553  -1.764  0.00  0.00    +0.036 A 
ATOM     33  CD1 TYR A   3      45.273   4.406  -0.713  0.00  0.00    -0.001 A 
BRANCH  31  34
ATOM     34  OH  TYR A   3      45.872   1.325  -2.591  0.00  0.00    -0.506 OA
ATOM     35  HH  TYR A   3      46.648   0.776  -2.313  0.00  0.00    +0.292 HD
ENDBRANCH  31  34
ENDBRANCH  27  28
ENDBRANCH  24  27
ENDBRANCH  21  24
ENDBRANCH   1  20
BRANCH   1  36
ATOM     36  CB  TYR A   2      47.982   4.140   5.727  0.00  0.00    +0.055 C 
BRANCH  36  37
ATOM     37  CG  TYR A   2      48.427   3.301   6.871  0.00  0.00    -0.020 A 
ATOM     38  CD2 TYR A   2      49.506   3.678   7.661  0.00  0.00    -0.001 A 
ATOM     39  CE2 TYR A   2      49.951   2.857   8.708  0.00  0.00    +0.036 A 
ATOM     40  CZ  TYR A   2      49.295   1.650   8.947  0.00  0.00    +0.134 A 
ATOM     41  CE1 TYR A   2      48.221   1.270   8.170  0.00  0.00    +0.036 A 
ATOM     42  CD1 TYR A   2      47.796   2.095   7.142  0.00  0.00    -0.001 A 
BRANCH  40  43
ATOM     43  OH  TYR A   2      49.701   0.794   9.955  0.00  0.00    -0.506 OA
ATOM     44  HH  TYR A   2      49.114  -0.003   9.965  0.00  0.00    +0.292 HD
ENDBRANCH  40  43
ENDBRANCH  36  37
ENDBRANCH   1  36
TORSDOF 14
REMARK  Name = ../refined-set-2016/4gid/4gid_pocket.pdb
REMARK  300 active torsions:
REMARK  status: ('A' for Active; 'I' for Inactive)
REMARK    1  A    between atoms: _1  and  _3
REMARK    2  A    between atoms: _3  and  _4
REMARK    3  A    between atoms: _6  and  _8
REMARK    4  A    between atoms: _8  and  _9
REMARK    5  A    between atoms: _8  and  _11
REMARK    6  A    between atoms: _11  and  _12
REMARK    7  A    between atoms: _12  and  _13
REMARK    8  A    between atoms: _13  and  _14
REMARK    9  A    between atoms: _14  and  _15
REMARK   10  A    between atoms: _19  and  _21
REMARK   11  A    between atoms: _21  and  _22
REMARK   12  A    between atoms: _21  and  _24
REMARK   13  A    between atoms: _24  and  _25
REMARK   14  A    between atoms: _27  and  _29
REMARK   15  A    between atoms: _29  and  _30
REMARK   16  A    between atoms: _32  and  _34
REMARK   17  A    between atoms: _34  and  _35
REMARK   18  A    between atoms: _34  and  _37
REMARK   19  A    between atoms: _37  and  _38
REMARK   20  A    between atoms: _38  and  _39
REMARK   21  A    between atoms: _44  and  _46
REMARK   22  A    between atoms: _46  and  _47
REMARK   23  A    between atoms: _49  and  _51
REMARK   24  A    between atoms: _51  and  _52
REMARK   25  A    between atoms: _51  and  _54
REMARK   26  A    between atoms: _54  and  _55
REMARK   27  A    between atoms: _60  and  _61
REMARK   28  A    between atoms: _63  and  _65
REMARK   29  A    between atoms: _65  and  _66
REMARK   30  A    between atoms: _65  and  _68
REMARK   31  A    between atoms: _68  and  _69
REMARK   32  A    between atoms: _74  and  _75
REMARK   33  A    between atoms: _77  and  _79
REMARK   34  A    between atoms: _79  and  _80
REMARK   35  A    between atoms: _79  and  _82
REMARK   36  A    between atoms: _82  and  _83
REMARK   37  A    between atoms: _86  and  _88
REMARK   38  A    between atoms: _88  and  _89
REMARK   39  A    between atoms: _88  and  _91
REMARK   40  A    between atoms: _94  and  _96
REMARK   41  A    between atoms: _96  and  _97
REMARK   42  A    between atoms: _96  and  _99
REMARK   43  A    between atoms: _99  and  _100
REMARK   44  A    between atoms: _103  and  _105
REMARK   45  A    between atoms: _105  and  _106
REMARK   46  A    between atoms: _105  and  _108
REMARK   47  A    between atoms: _108  and  _109
REMARK   48  A    between atoms: _112  and  _114
REMARK   49  A    between atoms: _114  and  _115
REMARK   50  A    between atoms: _117  and  _119
REMARK   51  A    between atoms: _119  and  _120
REMARK   52  A    between atoms: _119  and  _122
REMARK   53  A    between atoms: _122  and  _123
REMARK   54  A    between atoms: _125  and  _127
REMARK   55  A    between atoms: _127  and  _128
REMARK   56  A    between atoms: _127  and  _130
REMARK   57  A    between atoms: _130  and  _131
REMARK   58  A    between atoms: _133  and  _135
REMARK   59  A    between atoms: _135  and  _136
REMARK   60  A    between atoms: _135  and  _138
REMARK   61  A    between atoms: _138  and  _139
REMARK   62  A    between atoms: _144  and  _146
REMARK   63  A    between atoms: _146  and  _147
REMARK   64  A    between atoms: _146  and  _149
REMARK   65  A    between atoms: _149  and  _150
REMARK   66  A    between atoms: _155  and  _156
REMARK   67  A    between atoms: _158  and  _160
REMARK   68  A    between atoms: _160  and  _161
REMARK   69  A    between atoms: _160  and  _163
REMARK   70  A    between atoms: _167  and  _168
REMARK   71  A    between atoms: _173  and  _175
REMARK   72  A    between atoms: _175  and  _176
REMARK   73  A    between atoms: _175  and  _178
REMARK   74  A    between atoms: _178  and  _179
REMARK   75  A    between atoms: _184  and  _185
REMARK   76  A    between atoms: _187  and  _189
REMARK   77  A    between atoms: _189  and  _190
REMARK   78  A    between atoms: _189  and  _192
REMARK   79  A    between atoms: _192  and  _193
REMARK   80  A    between atoms: _196  and  _198
REMARK   81  A    between atoms: _198  and  _199
REMARK   82  A    between atoms: _198  and  _201
REMARK   83  A    between atoms: _201  and  _202
REMARK   84  A    between atoms: _202  and  _203
REMARK   85  A    between atoms: _208  and  _210
REMARK   86  A    between atoms: _210  and  _211
REMARK   87  A    between atoms: _213  and  _215
REMARK   88  A    between atoms: _215  and  _216
REMARK   89  A    between atoms: _215  and  _218
REMARK   90  A    between atoms: _218  and  _219
REMARK   91  A    between atoms: _219  and  _220
REMARK   92  A    between atoms: _220  and  _221
REMARK   93  A    between atoms: _221  and  _222
REMARK   94  A    between atoms: _226  and  _228
REMARK   95  A    between atoms: _228  and  _229
REMARK   96  A    between atoms: _228  and  _231
REMARK   97  A    between atoms: _231  and  _232
REMARK   98  A    between atoms: _242  and  _244
REMARK   99  A    between atoms: _244  and  _245
REMARK  100  A    between atoms: _244  and  _247
REMARK  101  A    between atoms: _247  and  _248
REMARK  102  A    between atoms: _251  and  _253
REMARK  103  A    between atoms: _253  and  _254
REMARK  104  A    between atoms: _253  and  _256
REMARK  105  A    between atoms: _256  and  _257
REMARK  106  A    between atoms: _257  and  _258
REMARK  107  A    between atoms: _258  and  _259
REMARK  108  A    between atoms: _259  and  _260
REMARK  109  A    between atoms: _264  and  _266
REMARK  110  A    between atoms: _266  and  _267
REMARK  111  A    between atoms: _266  and  _269
REMARK  112  A    between atoms: _269  and  _270
REMARK  113  A    between atoms: _276  and  _278
REMARK  114  A    between atoms: _278  and  _279
REMARK  115  A    between atoms: _278  and  _281
REMARK  116  A    between atoms: _281  and  _282
REMARK  117  A    between atoms: _288  and  _290
REMARK  118  A    between atoms: _290  and  _291
REMARK  119  A    between atoms: _290  and  _293
REMARK  120  A    between atoms: _293  and  _294
REMARK  121  A    between atoms: _297  and  _299
REMARK  122  A    between atoms: _299  and  _300
REMARK  123  A    between atoms: _299  and  _302
REMARK  124  A    between atoms: _302  and  _303
REMARK  125  A    between atoms: _305  and  _307
REMARK  126  A    between atoms: _307  and  _308
REMARK  127  A    between atoms: _307  and  _310
REMARK  128  A    between atoms: _310  and  _311
REMARK  129  A    between atoms: _321  and  _323
REMARK  130  A    between atoms: _323  and  _324
REMARK  131  A    between atoms: _326  and  _328
REMARK  132  A    between atoms: _328  and  _329
REMARK  133  A    between atoms: _328  and  _331
REMARK  134  A    between atoms: _331  and  _332
REMARK  135  A    between atoms: _335  and  _337
REMARK  136  A    between atoms: _337  and  _338
REMARK  137  A    between atoms: _337  and  _340
REMARK  138  A    between atoms: _340  and  _341
REMARK  139  A    between atoms: _344  and  _346
REMARK  140  A    between atoms: _346  and  _347
REMARK  141  A    between atoms: _349  and  _351
REMARK  142  A    between atoms: _351  and  _352
REMARK  143  A    between atoms: _355  and  _357
REMARK  144  A    between atoms: _357  and  _358
REMARK  145  A    between atoms: _357  and  _360
REMARK  146  A    between atoms: _360  and  _361
REMARK  147  A    between atoms: _366  and  _367
REMARK  148  A    between atoms: _369  and  _371
REMARK  149  A    between atoms: _371  and  _372
REMARK  150  A    between atoms: _371  and  _374
REMARK  151  A    between atoms: _374  and  _375
REMARK  152  A    between atoms: _375  and  _376
REMARK  153  A    between atoms: _379  and  _381
REMARK  154  A    between atoms: _381  and  _382
REMARK  155  A    between atoms: _381  and  _384
REMARK  156  A    between atoms: _384  and  _385
REMARK  157  A    between atoms: _388  and  _390
REMARK  158  A    between atoms: _390  and  _391
REMARK  159  A    between atoms: _394  and  _396
REMARK  160  A    between atoms: _396  and  _397
REMARK  161  A    between atoms: _396  and  _399
REMARK  162  A    between atoms: _399  and  _400
REMARK  163  A    between atoms: _400  and  _401
REMARK  164  A    between atoms: _401  and  _402
REMARK  165  A    between atoms: _411  and  _413
REMARK  166  A    between atoms: _413  and  _414
REMARK  167  A    between atoms: _413  and  _416
REMARK  168  A    between atoms: _416  and  _417
REMARK  169  A    between atoms: _420  and  _422
REMARK  170  A    between atoms: _422  and  _423
REMARK  171  A    between atoms: _422  and  _425
REMARK  172  A    between atoms: _425  and  _426
REMARK  173  A    between atoms: _436  and  _438
REMARK  174  A    between atoms: _438  and  _439
REMARK  175  A    between atoms: _438  and  _441
REMARK  176  A    between atoms: _441  and  _442
REMARK  177  A    between atoms: _447  and  _448
REMARK  178  A    between atoms: _450  and  _452
REMARK  179  A    between atoms: _452  and  _453
REMARK  180  A    between atoms: _452  and  _455
REMARK  181  A    between atoms: _455  and  _456
REMARK  182  A    between atoms: _461  and  _462
REMARK  183  A    between atoms: _464  and  _466
REMARK  184  A    between atoms: _466  and  _467
REMARK  185  A    between atoms: _466  and  _469
REMARK  186  A    between atoms: _469  and  _470
REMARK  187  A    between atoms: _470  and  _471
REMARK  188  A    between atoms: _471  and  _472
REMARK  189  A    between atoms: _472  and  _473
REMARK  190  A    between atoms: _477  and  _479
REMARK  191  A    between atoms: _479  and  _480
REMARK  192  A    between atoms: _479  and  _482
REMARK  193  A    between atoms: _482  and  _483
REMARK  194  A    between atoms: _486  and  _488
REMARK  195  A    between atoms: _488  and  _489
REMARK  196  A    between atoms: _488  and  _491
REMARK  197  A    between atoms: _494  and  _496
REMARK  198  A    between atoms: _496  and  _497
REMARK  199  A    between atoms: _496  and  _499
REMARK  200  A    between atoms: _499  and  _500
REMARK  201  A    between atoms: _503  and  _505
REMARK  202  A    between atoms: _505  and  _506
REMARK  203  A    between atoms: _505  and  _508
REMARK  204  A    between atoms: _508  and  _509
REMARK  205  A    between atoms: _511  and  _513
REMARK  206  A    between atoms: _513  and  _514
REMARK  207  A    between atoms: _516  and  _518
REMARK  208  A    between atoms: _518  and  _519
REMARK  209  A    between atoms: _518  and  _521
REMARK  210  A    between atoms: _521  and  _522
REMARK  211  A    between atoms: _525  and  _527
REMARK  212  A    between atoms: _527  and  _528
REMARK  213  A    between atoms: _527  and  _530
REMARK  214  A    between atoms: _530  and  _531
REMARK  215  A    between atoms: _534  and  _536
REMARK  216  A    between atoms: _536  and  _537
REMARK  217  A    between atoms: _536  and  _539
REMARK  218  A    between atoms: _539  and  _540
REMARK  219  A    between atoms: _545  and  _547
REMARK  220  A    between atoms: _547  and  _548
REMARK  221  A    between atoms: _547  and  _550
REMARK  222  A    between atoms: _550  and  _551
REMARK  223  A    between atoms: _554  and  _556
REMARK  224  A    between atoms: _556  and  _557
REMARK  225  A    between atoms: _556  and  _559
REMARK  226  A    between atoms: _559  and  _560
REMARK  227  A    between atoms: _560  and  _561
REMARK  228  A    between atoms: _561  and  _562
REMARK  229  A    between atoms: _571  and  _573
REMARK  230  A    between atoms: _573  and  _574
REMARK  231  A    between atoms: _573  and  _576
REMARK  232  A    between atoms: _576  and  _577
REMARK  233  A    between atoms: _580  and  _582
REMARK  234  A    between atoms: _582  and  _583
REMARK  235  A    between atoms: _585  and  _587
REMARK  236  A    between atoms: _587  and  _588
REMARK  237  A    between atoms: _587  and  _590
REMARK  238  A    between atoms: _590  and  _591
REMARK  239  A    between atoms: _591  and  _592
REMARK  240  A    between atoms: _592  and  _593
REMARK  241  A    between atoms: _602  and  _604
REMARK  242  A    between atoms: _604  and  _605
REMARK  243  A    between atoms: _604  and  _607
REMARK  244  A    between atoms: _607  and  _608
REMARK  245  A    between atoms: _608  and  _609
REMARK  246  A    between atoms: _609  and  _610
REMARK  247  A    between atoms: _610  and  _611
REMARK  248  A    between atoms: _615  and  _617
REMARK  249  A    between atoms: _617  and  _618
REMARK  250  A    between atoms: _617  and  _620
REMARK  251  A    between atoms: _620  and  _621
REMARK  252  A    between atoms: _627  and  _629
REMARK  253  A    between atoms: _629  and  _630
REMARK  254  A    between atoms: _633  and  _635
REMARK  255  A    between atoms: _635  and  _636
REMARK  256  A    between atoms: _635  and  _638
REMARK  257  A    between atoms: _638  and  _639
REMARK  258  A    between atoms: _642  and  _644
REMARK  259  A    between atoms: _644  and  _645
REMARK  260  A    between atoms: _644  and  _647
REMARK  261  A    between atoms: _647  and  _648
REMARK  262  A    between atoms: _650  and  _652
REMARK  263  A    between atoms: _652  and  _653
REMARK  264  A    between atoms: _652  and  _655
REMARK  265  A    between atoms: _655  and  _656
REMARK  266  A    between atoms: _656  and  _657
REMARK  267  A    between atoms: _662  and  _664
REMARK  268  A    between atoms: _664  and  _665
REMARK  269  A    between atoms: _664  and  _667
REMARK  270  A    between atoms: _667  and  _668
REMARK  271  A    between atoms: _670  and  _672
REMARK  272  A    between atoms: _672  and  _673
REMARK  273  A    between atoms: _672  and  _675
REMARK  274  A    between atoms: _675  and  _676
REMARK  275  A    between atoms: _679  and  _681
REMARK  276  A    between atoms: _681  and  _682
REMARK  277  A    between atoms: _684  and  _686
REMARK  278  A    between atoms: _686  and  _687
REMARK  279  A    between atoms: _686  and  _689
REMARK  280  A    between atoms: _689  and  _690
REMARK  281  A    between atoms: _693  and  _695
REMARK  282  A    between atoms: _695  and  _696
REMARK  283  A    between atoms: _695  and  _698
REMARK  284  A    between atoms: _701  and  _703
REMARK  285  A    between atoms: _703  and  _704
REMARK  286  A    between atoms: _706  and  _708
REMARK  287  A    between atoms: _708  and  _709
REMARK  288  A    between atoms: _712  and  _714
REMARK  289  A    between atoms: _714  and  _715
REMARK  290  A    between atoms: _714  and  _717
REMARK  291  A    between atoms: _720  and  _722
REMARK  292  A    between atoms: _722  and  _723
REMARK  293  A    between atoms: _722  and  _725
REMARK  294  A    between atoms: _725  and  _726
REMARK  295  A    between atoms: _726  and  _727
REMARK  296  A    between atoms: _729  and  _731
REMARK  297  A    between atoms: _731  and  _732
REMARK  298  A    between atoms: _731  and  _734
REMARK  299  A    between atoms: _734  and  _735
REMARK  300  A    between atoms: _735  and  _736
REMARK                            x       y       z     vdW  Elec       q    Type
REMARK                         _______ _______ _______ _____ _____    ______ ____
ROOT
ATOM      1  CG  LYS A   1      47.955   7.603  11.181  0.00  0.00    -0.000 C 
ENDROOT
BRANCH   1   2
ATOM      2  CB  LYS A   1      48.263   8.931  10.467  0.00  0.00    +0.025 C 
BRANCH   2   3
ATOM      3  CA  LYS A   1      47.542  10.136  11.071  0.00  0.00    +0.133 C 
BRANCH   3   4
ATOM      4  N   LYS A   1      47.908  10.297  12.491  0.00  0.00    -0.239 NA
ATOM      5  H   LYS A   1      47.182  10.145  13.220  0.00  0.00    +0.142 HD
ENDBRANCH   3   4
BRANCH   3   6
ATOM      6  C   LYS A   1      46.050   9.914  10.844  0.00  0.00    +0.224 C 
ATOM      7  O   LYS A   1      45.313   9.630  11.776  0.00  0.00    -0.287 OA
ENDBRANCH   3   6
ENDBRANCH   2   3
ENDBRANCH   1   2
BRANCH   1   8
ATOM      8  CD  LYS A   1      48.498   6.395  10.429  0.00  0.00    -0.024 C 
BRANCH   8   9
ATOM      9  CE  LYS A   1      48.524   5.172  11.338  0.00  0.00    -0.086 C 
BRANCH   9  10
ATOM     10  NZ  LYS A   1      49.299   5.481  12.590  0.00  0.00    +0.380 N 
ATOM     11  HZ1 LYS A   1      49.312   4.642  13.204  0.00  0.00    -0.089 HD
ATOM     12  HZ2 LYS A   1      48.846   6.272  13.091  0.00  0.00    -0.089 HD
ATOM     13  HZ3 LYS A   1      50.273   5.742  12.337  0.00  0.00    -0.089 HD
ENDBRANCH   9  10
ENDBRANCH   8   9
ENDBRANCH   1   8
TORSDOF 7
REMARK  Name = ../refined-set-2016/4gid/4gid_pocket.pdb
REMARK  300 active torsions:
REMARK  status: ('A' for Active; 'I' for Inactive)
REMARK    1  A    between atoms: _1  and  _3
REMARK    2  A    between atoms: _3  and  _4
REMARK    3  A    between atoms: _6  and  _8
REMARK    4  A    between atoms: _8  and  _9
REMARK    5  A    between atoms: _8  and  _11
REMARK    6  A    between atoms: _11  and  _12
REMARK    7  A    between atoms: _12  and  _13
REMARK    8  A    between atoms: _13  and  _14
REMARK    9  A    between atoms: _14  and  _15
REMARK   10  A    between atoms: _19  and  _21
REMARK   11  A    between atoms: _21  and  _22
REMARK   12  A    between atoms: _21  and  _24
REMARK   13  A    between atoms: _24  and  _25
REMARK   14  A    between atoms: _27  and  _29
REMARK   15  A    between atoms: _29  and  _30
REMARK   16  A    between atoms: _32  and  _34
REMARK   17  A    between atoms: _34  and  _35
REMARK   18  A    between atoms: _34  and  _37
REMARK   19  A    between atoms: _37  and  _38
REMARK   20  A    between atoms: _38  and  _39
REMARK   21  A    between atoms: _44  and  _46
REMARK   22  A    between atoms: _46  and  _47
REMARK   23  A    between atoms: _49  and  _51
REMARK   24  A    between atoms: _51  and  _52
REMARK   25  A    between atoms: _51  and  _54
REMARK   26  A    between atoms: _54  and  _55
REMARK   27  A    between atoms: _60  and  _61
REMARK   28  A    between atoms: _63  and  _65
REMARK   29  A    between atoms: _65  and  _66
REMARK   30  A    between atoms: _65  and  _68
REMARK   31  A    between atoms: _68  and  _69
REMARK   32  A    between atoms: _74  and  _75
REMARK   33  A    between atoms: _77  and  _79
REMARK   34  A    between atoms: _79  and  _80
REMARK   35  A    between atoms: _79  and  _82
REMARK   36  A    between atoms: _82  and  _83
REMARK   37  A    between atoms: _86  and  _88
REMARK   38  A    between atoms: _88  and  _89
REMARK   39  A    between atoms: _88  and  _91
REMARK   40  A    between atoms: _94  and  _96
REMARK   41  A    between atoms: _96  and  _97
REMARK   42  A    between atoms: _96  and  _99
REMARK   43  A    between atoms: _99  and  _100
REMARK   44  A    between atoms: _103  and  _105
REMARK   45  A    between atoms: _105  and  _106
REMARK   46  A    between atoms: _105  and  _108
REMARK   47  A    between atoms: _108  and  _109
REMARK   48  A    between atoms: _112  and  _114
REMARK   49  A    between atoms: _114  and  _115
REMARK   50  A    between atoms: _117  and  _119
REMARK   51  A    between atoms: _119  and  _120
REMARK   52  A    between atoms: _119  and  _122
REMARK   53  A    between atoms: _122  and  _123
REMARK   54  A    between atoms: _125  and  _127
REMARK   55  A    between atoms: _127  and  _128
REMARK   56  A    between atoms: _127  and  _130
REMARK   57  A    between atoms: _130  and  _131
REMARK   58  A    between atoms: _133  and  _135
REMARK   59  A    between atoms: _135  and  _136
REMARK   60  A    between atoms: _135  and  _138
REMARK   61  A    between atoms: _138  and  _139
REMARK   62  A    between atoms: _144  and  _146
REMARK   63  A    between atoms: _146  and  _147
REMARK   64  A    between atoms: _146  and  _149
REMARK   65  A    between atoms: _149  and  _150
REMARK   66  A    between atoms: _155  and  _156
REMARK   67  A    between atoms: _158  and  _160
REMARK   68  A    between atoms: _160  and  _161
REMARK   69  A    between atoms: _160  and  _163
REMARK   70  A    between atoms: _167  and  _168
REMARK   71  A    between atoms: _173  and  _175
REMARK   72  A    between atoms: _175  and  _176
REMARK   73  A    between atoms: _175  and  _178
REMARK   74  A    between atoms: _178  and  _179
REMARK   75  A    between atoms: _184  and  _185
REMARK   76  A    between atoms: _187  and  _189
REMARK   77  A    between atoms: _189  and  _190
REMARK   78  A    between atoms: _189  and  _192
REMARK   79  A    between atoms: _192  and  _193
REMARK   80  A    between atoms: _196  and  _198
REMARK   81  A    between atoms: _198  and  _199
REMARK   82  A    between atoms: _198  and  _201
REMARK   83  A    between atoms: _201  and  _202
REMARK   84  A    between atoms: _202  and  _203
REMARK   85  A    between atoms: _208  and  _210
REMARK   86  A    between atoms: _210  and  _211
REMARK   87  A    between atoms: _213  and  _215
REMARK   88  A    between atoms: _215  and  _216
REMARK   89  A    between atoms: _215  and  _218
REMARK   90  A    between atoms: _218  and  _219
REMARK   91  A    between atoms: _219  and  _220
REMARK   92  A    between atoms: _220  and  _221
REMARK   93  A    between atoms: _221  and  _222
REMARK   94  A    between atoms: _226  and  _228
REMARK   95  A    between atoms: _228  and  _229
REMARK   96  A    between atoms: _228  and  _231
REMARK   97  A    between atoms: _231  and  _232
REMARK   98  A    between atoms: _242  and  _244
REMARK   99  A    between atoms: _244  and  _245
REMARK  100  A    between atoms: _244  and  _247
REMARK  101  A    between atoms: _247  and  _248
REMARK  102  A    between atoms: _251  and  _253
REMARK  103  A    between atoms: _253  and  _254
REMARK  104  A    between atoms: _253  and  _256
REMARK  105  A    between atoms: _256  and  _257
REMARK  106  A    between atoms: _257  and  _258
REMARK  107  A    between atoms: _258  and  _259
REMARK  108  A    between atoms: _259  and  _260
REMARK  109  A    between atoms: _264  and  _266
REMARK  110  A    between atoms: _266  and  _267
REMARK  111  A    between atoms: _266  and  _269
REMARK  112  A    between atoms: _269  and  _270
REMARK  113  A    between atoms: _276  and  _278
REMARK  114  A    between atoms: _278  and  _279
REMARK  115  A    between atoms: _278  and  _281
REMARK  116  A    between atoms: _281  and  _282
REMARK  117  A    between atoms: _288  and  _290
REMARK  118  A    between atoms: _290  and  _291
REMARK  119  A    between atoms: _290  and  _293
REMARK  120  A    between atoms: _293  and  _294
REMARK  121  A    between atoms: _297  and  _299
REMARK  122  A    between atoms: _299  and  _300
REMARK  123  A    between atoms: _299  and  _302
REMARK  124  A    between atoms: _302  and  _303
REMARK  125  A    between atoms: _305  and  _307
REMARK  126  A    between atoms: _307  and  _308
REMARK  127  A    between atoms: _307  and  _310
REMARK  128  A    between atoms: _310  and  _311
REMARK  129  A    between atoms: _321  and  _323
REMARK  130  A    between atoms: _323  and  _324
REMARK  131  A    between atoms: _326  and  _328
REMARK  132  A    between atoms: _328  and  _329
REMARK  133  A    between atoms: _328  and  _331
REMARK  134  A    between atoms: _331  and  _332
REMARK  135  A    between atoms: _335  and  _337
REMARK  136  A    between atoms: _337  and  _338
REMARK  137  A    between atoms: _337  and  _340
REMARK  138  A    between atoms: _340  and  _341
REMARK  139  A    between atoms: _344  and  _346
REMARK  140  A    between atoms: _346  and  _347
REMARK  141  A    between atoms: _349  and  _351
REMARK  142  A    between atoms: _351  and  _352
REMARK  143  A    between atoms: _355  and  _357
REMARK  144  A    between atoms: _357  and  _358
REMARK  145  A    between atoms: _357  and  _360
REMARK  146  A    between atoms: _360  and  _361
REMARK  147  A    between atoms: _366  and  _367
REMARK  148  A    between atoms: _369  and  _371
REMARK  149  A    between atoms: _371  and  _372
REMARK  150  A    between atoms: _371  and  _374
REMARK  151  A    between atoms: _374  and  _375
REMARK  152  A    between atoms: _375  and  _376
REMARK  153  A    between atoms: _379  and  _381
REMARK  154  A    between atoms: _381  and  _382
REMARK  155  A    between atoms: _381  and  _384
REMARK  156  A    between atoms: _384  and  _385
REMARK  157  A    between atoms: _388  and  _390
REMARK  158  A    between atoms: _390  and  _391
REMARK  159  A    between atoms: _394  and  _396
REMARK  160  A    between atoms: _396  and  _397
REMARK  161  A    between atoms: _396  and  _399
REMARK  162  A    between atoms: _399  and  _400
REMARK  163  A    between atoms: _400  and  _401
REMARK  164  A    between atoms: _401  and  _402
REMARK  165  A    between atoms: _411  and  _413
REMARK  166  A    between atoms: _413  and  _414
REMARK  167  A    between atoms: _413  and  _416
REMARK  168  A    between atoms: _416  and  _417
REMARK  169  A    between atoms: _420  and  _422
REMARK  170  A    between atoms: _422  and  _423
REMARK  171  A    between atoms: _422  and  _425
REMARK  172  A    between atoms: _425  and  _426
REMARK  173  A    between atoms: _436  and  _438
REMARK  174  A    between atoms: _438  and  _439
REMARK  175  A    between atoms: _438  and  _441
REMARK  176  A    between atoms: _441  and  _442
REMARK  177  A    between atoms: _447  and  _448
REMARK  178  A    between atoms: _450  and  _452
REMARK  179  A    between atoms: _452  and  _453
REMARK  180  A    between atoms: _452  and  _455
REMARK  181  A    between atoms: _455  and  _456
REMARK  182  A    between atoms: _461  and  _462
REMARK  183  A    between atoms: _464  and  _466
REMARK  184  A    between atoms: _466  and  _467
REMARK  185  A    between atoms: _466  and  _469
REMARK  186  A    between atoms: _469  and  _470
REMARK  187  A    between atoms: _470  and  _471
REMARK  188  A    between atoms: _471  and  _472
REMARK  189  A    between atoms: _472  and  _473
REMARK  190  A    between atoms: _477  and  _479
REMARK  191  A    between atoms: _479  and  _480
REMARK  192  A    between atoms: _479  and  _482
REMARK  193  A    between atoms: _482  and  _483
REMARK  194  A    between atoms: _486  and  _488
REMARK  195  A    between atoms: _488  and  _489
REMARK  196  A    between atoms: _488  and  _491
REMARK  197  A    between atoms: _494  and  _496
REMARK  198  A    between atoms: _496  and  _497
REMARK  199  A    between atoms: _496  and  _499
REMARK  200  A    between atoms: _499  and  _500
REMARK  201  A    between atoms: _503  and  _505
REMARK  202  A    between atoms: _505  and  _506
REMARK  203  A    between atoms: _505  and  _508
REMARK  204  A    between atoms: _508  and  _509
REMARK  205  A    between atoms: _511  and  _513
REMARK  206  A    between atoms: _513  and  _514
REMARK  207  A    between atoms: _516  and  _518
REMARK  208  A    between atoms: _518  and  _519
REMARK  209  A    between atoms: _518  and  _521
REMARK  210  A    between atoms: _521  and  _522
REMARK  211  A    between atoms: _525  and  _527
REMARK  212  A    between atoms: _527  and  _528
REMARK  213  A    between atoms: _527  and  _530
REMARK  214  A    between atoms: _530  and  _531
REMARK  215  A    between atoms: _534  and  _536
REMARK  216  A    between atoms: _536  and  _537
REMARK  217  A    between atoms: _536  and  _539
REMARK  218  A    between atoms: _539  and  _540
REMARK  219  A    between atoms: _545  and  _547
REMARK  220  A    between atoms: _547  and  _548
REMARK  221  A    between atoms: _547  and  _550
REMARK  222  A    between atoms: _550  and  _551
REMARK  223  A    between atoms: _554  and  _556
REMARK  224  A    between atoms: _556  and  _557
REMARK  225  A    between atoms: _556  and  _559
REMARK  226  A    between atoms: _559  and  _560
REMARK  227  A    between atoms: _560  and  _561
REMARK  228  A    between atoms: _561  and  _562
REMARK  229  A    between atoms: _571  and  _573
REMARK  230  A    between atoms: _573  and  _574
REMARK  231  A    between atoms: _573  and  _576
REMARK  232  A    between atoms: _576  and  _577
REMARK  233  A    between atoms: _580  and  _582
REMARK  234  A    between atoms: _582  and  _583
REMARK  235  A    between atoms: _585  and  _587
REMARK  236  A    between atoms: _587  and  _588
REMARK  237  A    between atoms: _587  and  _590
REMARK  238  A    between atoms: _590  and  _591
REMARK  239  A    between atoms: _591  and  _592
REMARK  240  A    between atoms: _592  and  _593
REMARK  241  A    between atoms: _602  and  _604
REMARK  242  A    between atoms: _604  and  _605
REMARK  243  A    between atoms: _604  and  _607
REMARK  244  A    between atoms: _607  and  _608
REMARK  245  A    between atoms: _608  and  _609
REMARK  246  A    between atoms: _609  and  _610
REMARK  247  A    between atoms: _610  and  _611
REMARK  248  A    between atoms: _615  and  _617
REMARK  249  A    between atoms: _617  and  _618
REMARK  250  A    between atoms: _617  and  _620
REMARK  251  A    between atoms: _620  and  _621
REMARK  252  A    between atoms: _627  and  _629
REMARK  253  A    between atoms: _629  and  _630
REMARK  254  A    between atoms: _633  and  _635
REMARK  255  A    between atoms: _635  and  _636
REMARK  256  A    between atoms: _635  and  _638
REMARK  257  A    between atoms: _638  and  _639
REMARK  258  A    between atoms: _642  and  _644
REMARK  259  A    between atoms: _644  and  _645
REMARK  260  A    between atoms: _644  and  _647
REMARK  261  A    between atoms: _647  and  _648
REMARK  262  A    between atoms: _650  and  _652
REMARK  263  A    between atoms: _652  and  _653
REMARK  264  A    between atoms: _652  and  _655
REMARK  265  A    between atoms: _655  and  _656
REMARK  266  A    between atoms: _656  and  _657
REMARK  267  A    between atoms: _662  and  _664
REMARK  268  A    between atoms: _664  and  _665
REMARK  269  A    between atoms: _664  and  _667
REMARK  270  A    between atoms: _667  and  _668
REMARK  271  A    between atoms: _670  and  _672
REMARK  272  A    between atoms: _672  and  _673
REMARK  273  A    between atoms: _672  and  _675
REMARK  274  A    between atoms: _675  and  _676
REMARK  275  A    between atoms: _679  and  _681
REMARK  276  A    between atoms: _681  and  _682
REMARK  277  A    between atoms: _684  and  _686
REMARK  278  A    between atoms: _686  and  _687
REMARK  279  A    between atoms: _686  and  _689
REMARK  280  A    between atoms: _689  and  _690
REMARK  281  A    between atoms: _693  and  _695
REMARK  282  A    between atoms: _695  and  _696
REMARK  283  A    between atoms: _695  and  _698
REMARK  284  A    between atoms: _701  and  _703
REMARK  285  A    between atoms: _703  and  _704
REMARK  286  A    between atoms: _706  and  _708
REMARK  287  A    between atoms: _708  and  _709
REMARK  288  A    between atoms: _712  and  _714
REMARK  289  A    between atoms: _714  and  _715
REMARK  290  A    between atoms: _714  and  _717
REMARK  291  A    between atoms: _720  and  _722
REMARK  292  A    between atoms: _722  and  _723
REMARK  293  A    between atoms: _722  and  _725
REMARK  294  A    between atoms: _725  and  _726
REMARK  295  A    between atoms: _726  and  _727
REMARK  296  A    between atoms: _729  and  _731
REMARK  297  A    between atoms: _731  and  _732
REMARK  298  A    between atoms: _731  and  _734
REMARK  299  A    between atoms: _734  and  _735
REMARK  300  A    between atoms: _735  and  _736
REMARK                            x       y       z     vdW  Elec       q    Type
REMARK                         _______ _______ _______ _____ _____    ______ ____
ROOT
ATOM      1  CA  THR A   7      34.330  -1.449  11.151  0.00  0.00    +0.176 C 
ENDROOT
BRANCH   1   2
ATOM      2  C   THR A   7      33.918  -0.019  11.375  0.00  0.00    +0.243 C 
ATOM      3  N   ASN A   8      34.523   0.593  12.385  0.00  0.00    -0.297 N 
ATOM      4  H   ASN A   8      35.289   0.092  12.878  0.00  0.00    +0.150 HD
ATOM      5  O   THR A   7      33.090   0.517  10.646  0.00  0.00    -0.273 OA
BRANCH   3   6
ATOM      6  CA  ASN A   8      34.169   1.929  12.838  0.00  0.00    +0.158 C 
BRANCH   6   7
ATOM      7  C   ASN A   8      34.805   3.150  12.207  0.00  0.00    +0.241 C 
ATOM      8  N   LEU A   9      34.244   4.308  12.567  0.00  0.00    -0.297 N 
ATOM      9  H   LEU A   9      33.352   4.295  13.102  0.00  0.00    +0.150 HD
ATOM     10  O   ASN A   8      35.761   3.055  11.433  0.00  0.00    -0.273 OA
BRANCH   8  11
ATOM     11  CA  LEU A   9      34.849   5.585  12.229  0.00  0.00    +0.149 C 
BRANCH  11  12
ATOM     12  C   LEU A   9      35.617   5.686  13.575  0.00  0.00    +0.241 C 
ATOM     13  O   LEU A   9      35.005   5.696  14.662  0.00  0.00    -0.273 OA
ATOM     14  N   ARG A  10      36.942   5.706  13.521  0.00  0.00    -0.297 N 
ATOM     15  H   ARG A  10      37.427   5.678  12.602  0.00  0.00    +0.150 HD
BRANCH  14  16
ATOM     16  CA  ARG A  10      37.718   5.767  14.759  0.00  0.00    +0.149 C 
BRANCH  16  17
ATOM     17  C   ARG A  10      38.345   7.138  14.863  0.00  0.00    +0.241 C 
ATOM     18  N   LEU A  11      38.311   7.735  16.047  0.00  0.00    -0.298 N 
ATOM     19  H   LEU A  11      37.892   7.239  16.860  0.00  0.00    +0.150 HD
ATOM     20  O   ARG A  10      38.827   7.667  13.874  0.00  0.00    -0.273 OA
BRANCH  18  21
ATOM     21  CA  LEU A  11      38.854   9.079  16.224  0.00  0.00    +0.137 C 
BRANCH  21  22
ATOM     22  C   LEU A  11      39.863   9.187  17.374  0.00  0.00    +0.227 C 
ATOM     23  O   LEU A  11      39.747   8.490  18.383  0.00  0.00    -0.286 OA
ENDBRANCH  21  22
BRANCH  21  24
ATOM     24  CB  LEU A  11      37.691  10.051  16.512  0.00  0.00    +0.028 C 
BRANCH  24  25
ATOM     25  CG  LEU A  11      36.531  10.145  15.505  0.00  0.00    +0.002 C 
ATOM     26  CD2 LEU A  11      35.282  10.791  16.121  0.00  0.00    +0.000 C 
ATOM     27  CD1 LEU A  11      37.016  10.957  14.325  0.00  0.00    +0.000 C 
ENDBRANCH  24  25
ENDBRANCH  21  24
ENDBRANCH  18  21
ENDBRANCH  16  17
BRANCH  16  28
ATOM     28  CB  ARG A  10      38.788   4.661  14.764  0.00  0.00    +0.033 C 
BRANCH  28  29
ATOM     29  CG  ARG A  10      38.235   3.242  14.584  0.00  0.00    +0.045 C 
BRANCH  29  30
ATOM     30  CD  ARG A  10      39.323   2.160  14.798  0.00  0.00    +0.174 C 
BRANCH  30  31
ATOM     31  NE  ARG A  10      39.815   2.236  16.168  0.00  0.00    -0.265 N 
ATOM     32  HE  ARG A  10      39.113   2.331  16.930  0.00  0.00    +0.259 HD
ATOM     33  CZ  ARG A  10      41.093   2.193  16.510  0.00  0.00    +0.342 C 
ATOM     34  NH2 ARG A  10      41.449   2.278  17.792  0.00  0.00    -0.292 N 
ATOM     35 HH21 ARG A  10      40.721   2.379  18.528  0.00  0.00    +0.255 HD
ATOM     36 HH22 ARG A  10      42.454   2.244  18.056  0.00  0.00    +0.255 HD
ATOM     37  NH1 ARG A  10      42.011   2.041  15.569  0.00  0.00    -0.292 N 
ATOM     38 HH11 ARG A  10      43.018   2.006  15.826  0.00  0.00    +0.255 HD
ATOM     39 HH12 ARG A  10      41.725   1.957  14.573  0.00  0.00    +0.255 HD
ENDBRANCH  30  31
ENDBRANCH  29  30
ENDBRANCH  28  29
ENDBRANCH  16  28
ENDBRANCH  14  16
ENDBRANCH  11  12
BRANCH  11  40
ATOM     40  CB  LEU A   9      33.828   6.743  12.119  0.00  0.00    +0.029 C 
BRANCH  40  41
ATOM     41  CG  LEU A   9      34.462   8.147  12.246  0.00  0.00    +0.002 C 
ATOM     42  CD2 LEU A   9      33.389   9.245  12.115  0.00  0.00    +0.000 C 
ATOM     43  CD1 LEU A   9      35.550   8.357  11.168  0.00  0.00    +0.000 C 
ENDBRANCH  40  41
ENDBRANCH  11  40
ENDBRANCH   8  11
ENDBRANCH   6   7
BRANCH   6  44
ATOM     44  CB  ASN A   8      34.482   2.008  14.340  0.00  0.00    +0.114 C 
BRANCH  44  45
ATOM     45  CG  ASN A   8      33.602   1.098  15.179  0.00  0.00    +0.222 C 
ATOM     46  ND2 ASN A   8      33.776   1.150  16.499  0.00  0.00    -0.329 N 
ATOM     47 HD21 ASN A   8      33.195   0.555  17.124  0.00  0.00    +0.145 HD
ATOM     48 HD22 ASN A   8      34.493   1.785  16.904  0.00  0.00    +0.145 HD
ATOM     49  OD1 ASN A   8      32.766   0.362  14.650  0.00  0.00    -0.275 OA
ENDBRANCH  44  45
ENDBRANCH   6  44
ENDBRANCH   3   6
ENDBRANCH   1   2
BRANCH   1  51
ATOM     50  C   THR A   6      36.442  -1.217  10.050  0.00  0.00    +0.243 C 
ATOM     51  N   THR A   7      35.767  -1.677  11.087  0.00  0.00    -0.295 N 
ATOM     52  H   THR A   7      36.254  -2.194  11.847  0.00  0.00    +0.150 HD
ATOM     53  O   THR A   6      35.894  -0.554   9.154  0.00  0.00    -0.273 OA
BRANCH  50  54
ATOM     54  CA  THR A   6      37.952  -1.505  10.015  0.00  0.00    +0.176 C 
BRANCH  54  57
ATOM     55  C   GLY A   5      38.727  -3.161   8.370  0.00  0.00    +0.243 C 
ATOM     56  O   GLY A   5      38.824  -4.043   9.230  0.00  0.00    -0.273 OA
ATOM     57  N   THR A   6      38.333  -1.917   8.651  0.00  0.00    -0.295 N 
ATOM     58  H   THR A   6      38.293  -1.216   7.884  0.00  0.00    +0.150 HD
BRANCH  55  59
ATOM     59  CA  GLY A   5      39.082  -3.467   6.917  0.00  0.00    +0.176 C 
BRANCH  59  61
ATOM     60  C   SER A   4      37.934  -1.994   5.396  0.00  0.00    +0.243 C 
ATOM     61  N   GLY A   5      39.056  -2.313   6.034  0.00  0.00    -0.295 N 
ATOM     62  H   GLY A   5      39.913  -1.738   5.902  0.00  0.00    +0.150 HD
ATOM     63  O   SER A   4      36.921  -2.656   5.509  0.00  0.00    -0.273 OA
BRANCH  60  64
ATOM     64  CA  SER A   4      37.966  -0.743   4.494  0.00  0.00    +0.178 C 
BRANCH  64  67
ATOM     65  C   ASP A   3      39.335   0.720   5.875  0.00  0.00    +0.241 C 
ATOM     66  O   ASP A   3      38.541   0.648   6.807  0.00  0.00    -0.273 OA
ATOM     67  N   SER A   4      39.157   0.076   4.723  0.00  0.00    -0.295 N 
ATOM     68  H   SER A   4      39.875   0.156   3.975  0.00  0.00    +0.150 HD
BRANCH  65  69
ATOM     69  CA  ASP A   3      40.605   1.552   6.016  0.00  0.00    +0.160 C 
BRANCH  69  71
ATOM     70  C   VAL A   2      41.178   3.660   4.905  0.00  0.00    +0.241 C 
ATOM     71  N   ASP A   3      40.397   2.972   5.736  0.00  0.00    -0.297 N 
ATOM     72  H   ASP A   3      39.609   3.464   6.204  0.00  0.00    +0.150 HD
ATOM     73  O   VAL A   2      42.093   3.144   4.281  0.00  0.00    -0.273 OA
BRANCH  70  74
ATOM     74  CA  VAL A   2      40.889   5.169   4.787  0.00  0.00    +0.148 C 
BRANCH  74  77
ATOM     75  C   ILE A   1      42.193   6.296   6.544  0.00  0.00    +0.238 C 
ATOM     76  O   ILE A   1      41.225   6.409   7.298  0.00  0.00    -0.274 OA
ATOM     77  N   VAL A   2      42.117   5.756   5.329  0.00  0.00    -0.297 N 
ATOM     78  H   VAL A   2      42.971   5.751   4.736  0.00  0.00    +0.150 HD
BRANCH  75  79
ATOM     79  CA  ILE A   1      43.575   6.818   6.952  0.00  0.00    +0.145 C 
BRANCH  79  80
ATOM     80  N   ILE A   1      43.540   7.762   8.052  0.00  0.00    -0.238 NA
ATOM     81  H   ILE A   1      42.908   7.588   8.859  0.00  0.00    +0.142 HD
ENDBRANCH  79  80
BRANCH  79  82
ATOM     82  CB  ILE A   1      44.490   5.600   7.303  0.00  0.00    +0.025 C 
ATOM     83  CG2 ILE A   1      45.909   6.090   7.674  0.00  0.00    +0.002 C 
BRANCH  82  84
ATOM     84  CG1 ILE A   1      43.889   4.817   8.482  0.00  0.00    +0.002 C 
ATOM     85  CD1 ILE A   1      44.641   3.488   8.845  0.00  0.00    +0.000 C 
ENDBRANCH  82  84
ENDBRANCH  79  82
ENDBRANCH  75  79
ENDBRANCH  74  77
BRANCH  74  86
ATOM     86  CB  VAL A   2      40.681   5.608   3.307  0.00  0.00    +0.027 C 
ATOM     87  CG2 VAL A   2      40.534   7.129   3.237  0.00  0.00    +0.002 C 
ATOM     88  CG1 VAL A   2      39.439   4.958   2.717  0.00  0.00    +0.002 C 
ENDBRANCH  74  86
ENDBRANCH  70  74
ENDBRANCH  69  71
BRANCH  69  89
ATOM     89  CB  ASP A   3      41.155   1.430   7.449  0.00  0.00    +0.143 C 
BRANCH  89  90
ATOM     90  CG  ASP A   3      41.467   0.014   7.853  0.00  0.00    +0.367 C 
ATOM     91  OD2 ASP A   3      41.957  -0.172   8.995  0.00  0.00    -0.246 OA
ATOM     92  OD1 ASP A   3      41.223  -0.902   7.049  0.00  0.00    -0.246 OA
ENDBRANCH  89  90
ENDBRANCH  69  89
ENDBRANCH  65  69
ENDBRANCH  64  67
BRANCH  64  93
ATOM     93  CB  SER A   4      37.882  -1.159   3.015  0.00  0.00    +0.166 C 
BRANCH  93  94
ATOM     94  OG  SER A   4      38.896  -2.091   2.674  0.00  0.00    -0.380 OA
ATOM     95  H   SER A   4      38.798  -2.902   3.233  0.00  0.00    +0.211 HD
ENDBRANCH  93  94
ENDBRANCH  64  93
ENDBRANCH  60  64
ENDBRANCH  59  61
ENDBRANCH  55  59
ENDBRANCH  54  57
BRANCH  54  96
ATOM     96  CB  THR A   6      38.718  -0.197  10.463  0.00  0.00    +0.137 C 
ATOM     97  CG2 THR A   6      38.139   0.344  11.749  0.00  0.00    +0.034 C 
BRANCH  96  98
ATOM     98  OG1 THR A   6      40.117  -0.468  10.643  0.00  0.00    -0.382 OA
ATOM     99  HG1 THR A   6      40.502  -0.790   9.790  0.00  0.00    +0.210 HD
ENDBRANCH  96  98
ENDBRANCH  54  96
ENDBRANCH  50  54
ENDBRANCH   1  51
BRANCH   1 100
ATOM    100  CB  THR A   7      33.684  -2.237  12.273  0.00  0.00    +0.137 C 
ATOM    101  CG2 THR A   7      32.151  -2.134  12.183  0.00  0.00    +0.034 C 
BRANCH 100 102
ATOM    102  OG1 THR A   7      34.077  -3.600  12.154  0.00  0.00    -0.382 OA
ATOM    103  HG1 THR A   7      33.661  -4.127  12.882  0.00  0.00    +0.210 HD
ENDBRANCH 100 102
ENDBRANCH   1 100
TORSDOF 43
REMARK  Name = ../refined-set-2016/4gid/4gid_pocket.pdb
REMARK  300 active torsions:
REMARK  status: ('A' for Active; 'I' for Inactive)
REMARK    1  A    between atoms: _1  and  _3
REMARK    2  A    between atoms: _3  and  _4
REMARK    3  A    between atoms: _6  and  _8
REMARK    4  A    between atoms: _8  and  _9
REMARK    5  A    between atoms: _8  and  _11
REMARK    6  A    between atoms: _11  and  _12
REMARK    7  A    between atoms: _12  and  _13
REMARK    8  A    between atoms: _13  and  _14
REMARK    9  A    between atoms: _14  and  _15
REMARK   10  A    between atoms: _19  and  _21
REMARK   11  A    between atoms: _21  and  _22
REMARK   12  A    between atoms: _21  and  _24
REMARK   13  A    between atoms: _24  and  _25
REMARK   14  A    between atoms: _27  and  _29
REMARK   15  A    between atoms: _29  and  _30
REMARK   16  A    between atoms: _32  and  _34
REMARK   17  A    between atoms: _34  and  _35
REMARK   18  A    between atoms: _34  and  _37
REMARK   19  A    between atoms: _37  and  _38
REMARK   20  A    between atoms: _38  and  _39
REMARK   21  A    between atoms: _44  and  _46
REMARK   22  A    between atoms: _46  and  _47
REMARK   23  A    between atoms: _49  and  _51
REMARK   24  A    between atoms: _51  and  _52
REMARK   25  A    between atoms: _51  and  _54
REMARK   26  A    between atoms: _54  and  _55
REMARK   27  A    between atoms: _60  and  _61
REMARK   28  A    between atoms: _63  and  _65
REMARK   29  A    between atoms: _65  and  _66
REMARK   30  A    between atoms: _65  and  _68
REMARK   31  A    between atoms: _68  and  _69
REMARK   32  A    between atoms: _74  and  _75
REMARK   33  A    between atoms: _77  and  _79
REMARK   34  A    between atoms: _79  and  _80
REMARK   35  A    between atoms: _79  and  _82
REMARK   36  A    between atoms: _82  and  _83
REMARK   37  A    between atoms: _86  and  _88
REMARK   38  A    between atoms: _88  and  _89
REMARK   39  A    between atoms: _88  and  _91
REMARK   40  A    between atoms: _94  and  _96
REMARK   41  A    between atoms: _96  and  _97
REMARK   42  A    between atoms: _96  and  _99
REMARK   43  A    between atoms: _99  and  _100
REMARK   44  A    between atoms: _103  and  _105
REMARK   45  A    between atoms: _105  and  _106
REMARK   46  A    between atoms: _105  and  _108
REMARK   47  A    between atoms: _108  and  _109
REMARK   48  A    between atoms: _112  and  _114
REMARK   49  A    between atoms: _114  and  _115
REMARK   50  A    between atoms: _117  and  _119
REMARK   51  A    between atoms: _119  and  _120
REMARK   52  A    between atoms: _119  and  _122
REMARK   53  A    between atoms: _122  and  _123
REMARK   54  A    between atoms: _125  and  _127
REMARK   55  A    between atoms: _127  and  _128
REMARK   56  A    between atoms: _127  and  _130
REMARK   57  A    between atoms: _130  and  _131
REMARK   58  A    between atoms: _133  and  _135
REMARK   59  A    between atoms: _135  and  _136
REMARK   60  A    between atoms: _135  and  _138
REMARK   61  A    between atoms: _138  and  _139
REMARK   62  A    between atoms: _144  and  _146
REMARK   63  A    between atoms: _146  and  _147
REMARK   64  A    between atoms: _146  and  _149
REMARK   65  A    between atoms: _149  and  _150
REMARK   66  A    between atoms: _155  and  _156
REMARK   67  A    between atoms: _158  and  _160
REMARK   68  A    between atoms: _160  and  _161
REMARK   69  A    between atoms: _160  and  _163
REMARK   70  A    between atoms: _167  and  _168
REMARK   71  A    between atoms: _173  and  _175
REMARK   72  A    between atoms: _175  and  _176
REMARK   73  A    between atoms: _175  and  _178
REMARK   74  A    between atoms: _178  and  _179
REMARK   75  A    between atoms: _184  and  _185
REMARK   76  A    between atoms: _187  and  _189
REMARK   77  A    between atoms: _189  and  _190
REMARK   78  A    between atoms: _189  and  _192
REMARK   79  A    between atoms: _192  and  _193
REMARK   80  A    between atoms: _196  and  _198
REMARK   81  A    between atoms: _198  and  _199
REMARK   82  A    between atoms: _198  and  _201
REMARK   83  A    between atoms: _201  and  _202
REMARK   84  A    between atoms: _202  and  _203
REMARK   85  A    between atoms: _208  and  _210
REMARK   86  A    between atoms: _210  and  _211
REMARK   87  A    between atoms: _213  and  _215
REMARK   88  A    between atoms: _215  and  _216
REMARK   89  A    between atoms: _215  and  _218
REMARK   90  A    between atoms: _218  and  _219
REMARK   91  A    between atoms: _219  and  _220
REMARK   92  A    between atoms: _220  and  _221
REMARK   93  A    between atoms: _221  and  _222
REMARK   94  A    between atoms: _226  and  _228
REMARK   95  A    between atoms: _228  and  _229
REMARK   96  A    between atoms: _228  and  _231
REMARK   97  A    between atoms: _231  and  _232
REMARK   98  A    between atoms: _242  and  _244
REMARK   99  A    between atoms: _244  and  _245
REMARK  100  A    between atoms: _244  and  _247
REMARK  101  A    between atoms: _247  and  _248
REMARK  102  A    between atoms: _251  and  _253
REMARK  103  A    between atoms: _253  and  _254
REMARK  104  A    between atoms: _253  and  _256
REMARK  105  A    between atoms: _256  and  _257
REMARK  106  A    between atoms: _257  and  _258
REMARK  107  A    between atoms: _258  and  _259
REMARK  108  A    between atoms: _259  and  _260
REMARK  109  A    between atoms: _264  and  _266
REMARK  110  A    between atoms: _266  and  _267
REMARK  111  A    between atoms: _266  and  _269
REMARK  112  A    between atoms: _269  and  _270
REMARK  113  A    between atoms: _276  and  _278
REMARK  114  A    between atoms: _278  and  _279
REMARK  115  A    between atoms: _278  and  _281
REMARK  116  A    between atoms: _281  and  _282
REMARK  117  A    between atoms: _288  and  _290
REMARK  118  A    between atoms: _290  and  _291
REMARK  119  A    between atoms: _290  and  _293
REMARK  120  A    between atoms: _293  and  _294
REMARK  121  A    between atoms: _297  and  _299
REMARK  122  A    between atoms: _299  and  _300
REMARK  123  A    between atoms: _299  and  _302
REMARK  124  A    between atoms: _302  and  _303
REMARK  125  A    between atoms: _305  and  _307
REMARK  126  A    between atoms: _307  and  _308
REMARK  127  A    between atoms: _307  and  _310
REMARK  128  A    between atoms: _310  and  _311
REMARK  129  A    between atoms: _321  and  _323
REMARK  130  A    between atoms: _323  and  _324
REMARK  131  A    between atoms: _326  and  _328
REMARK  132  A    between atoms: _328  and  _329
REMARK  133  A    between atoms: _328  and  _331
REMARK  134  A    between atoms: _331  and  _332
REMARK  135  A    between atoms: _335  and  _337
REMARK  136  A    between atoms: _337  and  _338
REMARK  137  A    between atoms: _337  and  _340
REMARK  138  A    between atoms: _340  and  _341
REMARK  139  A    between atoms: _344  and  _346
REMARK  140  A    between atoms: _346  and  _347
REMARK  141  A    between atoms: _349  and  _351
REMARK  142  A    between atoms: _351  and  _352
REMARK  143  A    between atoms: _355  and  _357
REMARK  144  A    between atoms: _357  and  _358
REMARK  145  A    between atoms: _357  and  _360
REMARK  146  A    between atoms: _360  and  _361
REMARK  147  A    between atoms: _366  and  _367
REMARK  148  A    between atoms: _369  and  _371
REMARK  149  A    between atoms: _371  and  _372
REMARK  150  A    between atoms: _371  and  _374
REMARK  151  A    between atoms: _374  and  _375
REMARK  152  A    between atoms: _375  and  _376
REMARK  153  A    between atoms: _379  and  _381
REMARK  154  A    between atoms: _381  and  _382
REMARK  155  A    between atoms: _381  and  _384
REMARK  156  A    between atoms: _384  and  _385
REMARK  157  A    between atoms: _388  and  _390
REMARK  158  A    between atoms: _390  and  _391
REMARK  159  A    between atoms: _394  and  _396
REMARK  160  A    between atoms: _396  and  _397
REMARK  161  A    between atoms: _396  and  _399
REMARK  162  A    between atoms: _399  and  _400
REMARK  163  A    between atoms: _400  and  _401
REMARK  164  A    between atoms: _401  and  _402
REMARK  165  A    between atoms: _411  and  _413
REMARK  166  A    between atoms: _413  and  _414
REMARK  167  A    between atoms: _413  and  _416
REMARK  168  A    between atoms: _416  and  _417
REMARK  169  A    between atoms: _420  and  _422
REMARK  170  A    between atoms: _422  and  _423
REMARK  171  A    between atoms: _422  and  _425
REMARK  172  A    between atoms: _425  and  _426
REMARK  173  A    between atoms: _436  and  _438
REMARK  174  A    between atoms: _438  and  _439
REMARK  175  A    between atoms: _438  and  _441
REMARK  176  A    between atoms: _441  and  _442
REMARK  177  A    between atoms: _447  and  _448
REMARK  178  A    between atoms: _450  and  _452
REMARK  179  A    between atoms: _452  and  _453
REMARK  180  A    between atoms: _452  and  _455
REMARK  181  A    between atoms: _455  and  _456
REMARK  182  A    between atoms: _461  and  _462
REMARK  183  A    between atoms: _464  and  _466
REMARK  184  A    between atoms: _466  and  _467
REMARK  185  A    between atoms: _466  and  _469
REMARK  186  A    between atoms: _469  and  _470
REMARK  187  A    between atoms: _470  and  _471
REMARK  188  A    between atoms: _471  and  _472
REMARK  189  A    between atoms: _472  and  _473
REMARK  190  A    between atoms: _477  and  _479
REMARK  191  A    between atoms: _479  and  _480
REMARK  192  A    between atoms: _479  and  _482
REMARK  193  A    between atoms: _482  and  _483
REMARK  194  A    between atoms: _486  and  _488
REMARK  195  A    between atoms: _488  and  _489
REMARK  196  A    between atoms: _488  and  _491
REMARK  197  A    between atoms: _494  and  _496
REMARK  198  A    between atoms: _496  and  _497
REMARK  199  A    between atoms: _496  and  _499
REMARK  200  A    between atoms: _499  and  _500
REMARK  201  A    between atoms: _503  and  _505
REMARK  202  A    between atoms: _505  and  _506
REMARK  203  A    between atoms: _505  and  _508
REMARK  204  A    between atoms: _508  and  _509
REMARK  205  A    between atoms: _511  and  _513
REMARK  206  A    between atoms: _513  and  _514
REMARK  207  A    between atoms: _516  and  _518
REMARK  208  A    between atoms: _518  and  _519
REMARK  209  A    between atoms: _518  and  _521
REMARK  210  A    between atoms: _521  and  _522
REMARK  211  A    between atoms: _525  and  _527
REMARK  212  A    between atoms: _527  and  _528
REMARK  213  A    between atoms: _527  and  _530
REMARK  214  A    between atoms: _530  and  _531
REMARK  215  A    between atoms: _534  and  _536
REMARK  216  A    between atoms: _536  and  _537
REMARK  217  A    between atoms: _536  and  _539
REMARK  218  A    between atoms: _539  and  _540
REMARK  219  A    between atoms: _545  and  _547
REMARK  220  A    between atoms: _547  and  _548
REMARK  221  A    between atoms: _547  and  _550
REMARK  222  A    between atoms: _550  and  _551
REMARK  223  A    between atoms: _554  and  _556
REMARK  224  A    between atoms: _556  and  _557
REMARK  225  A    between atoms: _556  and  _559
REMARK  226  A    between atoms: _559  and  _560
REMARK  227  A    between atoms: _560  and  _561
REMARK  228  A    between atoms: _561  and  _562
REMARK  229  A    between atoms: _571  and  _573
REMARK  230  A    between atoms: _573  and  _574
REMARK  231  A    between atoms: _573  and  _576
REMARK  232  A    between atoms: _576  and  _577
REMARK  233  A    between atoms: _580  and  _582
REMARK  234  A    between atoms: _582  and  _583
REMARK  235  A    between atoms: _585  and  _587
REMARK  236  A    between atoms: _587  and  _588
REMARK  237  A    between atoms: _587  and  _590
REMARK  238  A    between atoms: _590  and  _591
REMARK  239  A    between atoms: _591  and  _592
REMARK  240  A    between atoms: _592  and  _593
REMARK  241  A    between atoms: _602  and  _604
REMARK  242  A    between atoms: _604  and  _605
REMARK  243  A    between atoms: _604  and  _607
REMARK  244  A    between atoms: _607  and  _608
REMARK  245  A    between atoms: _608  and  _609
REMARK  246  A    between atoms: _609  and  _610
REMARK  247  A    between atoms: _610  and  _611
REMARK  248  A    between atoms: _615  and  _617
REMARK  249  A    between atoms: _617  and  _618
REMARK  250  A    between atoms: _617  and  _620
REMARK  251  A    between atoms: _620  and  _621
REMARK  252  A    between atoms: _627  and  _629
REMARK  253  A    between atoms: _629  and  _630
REMARK  254  A    between atoms: _633  and  _635
REMARK  255  A    between atoms: _635  and  _636
REMARK  256  A    between atoms: _635  and  _638
REMARK  257  A    between atoms: _638  and  _639
REMARK  258  A    between atoms: _642  and  _644
REMARK  259  A    between atoms: _644  and  _645
REMARK  260  A    between atoms: _644  and  _647
REMARK  261  A    between atoms: _647  and  _648
REMARK  262  A    between atoms: _650  and  _652
REMARK  263  A    between atoms: _652  and  _653
REMARK  264  A    between atoms: _652  and  _655
REMARK  265  A    between atoms: _655  and  _656
REMARK  266  A    between atoms: _656  and  _657
REMARK  267  A    between atoms: _662  and  _664
REMARK  268  A    between atoms: _664  and  _665
REMARK  269  A    between atoms: _664  and  _667
REMARK  270  A    between atoms: _667  and  _668
REMARK  271  A    between atoms: _670  and  _672
REMARK  272  A    between atoms: _672  and  _673
REMARK  273  A    between atoms: _672  and  _675
REMARK  274  A    between atoms: _675  and  _676
REMARK  275  A    between atoms: _679  and  _681
REMARK  276  A    between atoms: _681  and  _682
REMARK  277  A    between atoms: _684  and  _686
REMARK  278  A    between atoms: _686  and  _687
REMARK  279  A    between atoms: _686  and  _689
REMARK  280  A    between atoms: _689  and  _690
REMARK  281  A    between atoms: _693  and  _695
REMARK  282  A    between atoms: _695  and  _696
REMARK  283  A    between atoms: _695  and  _698
REMARK  284  A    between atoms: _701  and  _703
REMARK  285  A    between atoms: _703  and  _704
REMARK  286  A    between atoms: _706  and  _708
REMARK  287  A    between atoms: _708  and  _709
REMARK  288  A    between atoms: _712  and  _714
REMARK  289  A    between atoms: _714  and  _715
REMARK  290  A    between atoms: _714  and  _717
REMARK  291  A    between atoms: _720  and  _722
REMARK  292  A    between atoms: _722  and  _723
REMARK  293  A    between atoms: _722  and  _725
REMARK  294  A    between atoms: _725  and  _726
REMARK  295  A    between atoms: _726  and  _727
REMARK  296  A    between atoms: _729  and  _731
REMARK  297  A    between atoms: _731  and  _732
REMARK  298  A    between atoms: _731  and  _734
REMARK  299  A    between atoms: _734  and  _735
REMARK  300  A    between atoms: _735  and  _736
REMARK                            x       y       z     vdW  Elec       q    Type
REMARK                         _______ _______ _______ _____ _____    ______ ____
ROOT
ATOM      1  CA  GLY A   1      30.098   0.709  21.918  0.00  0.00    +0.156 C 
ENDROOT
BRANCH   1   2
ATOM      2  N   GLY A   1      30.226   1.842  22.822  0.00  0.00    -0.238 NA
ATOM      3  H   GLY A   1      29.401   2.452  22.993  0.00  0.00    +0.142 HD
ENDBRANCH   1   2
BRANCH   1   4
ATOM      4  C   GLY A   1      30.042  -0.650  22.592  0.00  0.00    +0.226 C 
ATOM      5  O   GLY A   1      30.235  -1.681  21.942  0.00  0.00    -0.287 OA
ENDBRANCH   1   4
TORSDOF 2
REMARK  Name = ../refined-set-2016/4gid/4gid_pocket.pdb
REMARK  300 active torsions:
REMARK  status: ('A' for Active; 'I' for Inactive)
REMARK    1  A    between atoms: _1  and  _3
REMARK    2  A    between atoms: _3  and  _4
REMARK    3  A    between atoms: _6  and  _8
REMARK    4  A    between atoms: _8  and  _9
REMARK    5  A    between atoms: _8  and  _11
REMARK    6  A    between atoms: _11  and  _12
REMARK    7  A    between atoms: _12  and  _13
REMARK    8  A    between atoms: _13  and  _14
REMARK    9  A    between atoms: _14  and  _15
REMARK   10  A    between atoms: _19  and  _21
REMARK   11  A    between atoms: _21  and  _22
REMARK   12  A    between atoms: _21  and  _24
REMARK   13  A    between atoms: _24  and  _25
REMARK   14  A    between atoms: _27  and  _29
REMARK   15  A    between atoms: _29  and  _30
REMARK   16  A    between atoms: _32  and  _34
REMARK   17  A    between atoms: _34  and  _35
REMARK   18  A    between atoms: _34  and  _37
REMARK   19  A    between atoms: _37  and  _38
REMARK   20  A    between atoms: _38  and  _39
REMARK   21  A    between atoms: _44  and  _46
REMARK   22  A    between atoms: _46  and  _47
REMARK   23  A    between atoms: _49  and  _51
REMARK   24  A    between atoms: _51  and  _52
REMARK   25  A    between atoms: _51  and  _54
REMARK   26  A    between atoms: _54  and  _55
REMARK   27  A    between atoms: _60  and  _61
REMARK   28  A    between atoms: _63  and  _65
REMARK   29  A    between atoms: _65  and  _66
REMARK   30  A    between atoms: _65  and  _68
REMARK   31  A    between atoms: _68  and  _69
REMARK   32  A    between atoms: _74  and  _75
REMARK   33  A    between atoms: _77  and  _79
REMARK   34  A    between atoms: _79  and  _80
REMARK   35  A    between atoms: _79  and  _82
REMARK   36  A    between atoms: _82  and  _83
REMARK   37  A    between atoms: _86  and  _88
REMARK   38  A    between atoms: _88  and  _89
REMARK   39  A    between atoms: _88  and  _91
REMARK   40  A    between atoms: _94  and  _96
REMARK   41  A    between atoms: _96  and  _97
REMARK   42  A    between atoms: _96  and  _99
REMARK   43  A    between atoms: _99  and  _100
REMARK   44  A    between atoms: _103  and  _105
REMARK   45  A    between atoms: _105  and  _106
REMARK   46  A    between atoms: _105  and  _108
REMARK   47  A    between atoms: _108  and  _109
REMARK   48  A    between atoms: _112  and  _114
REMARK   49  A    between atoms: _114  and  _115
REMARK   50  A    between atoms: _117  and  _119
REMARK   51  A    between atoms: _119  and  _120
REMARK   52  A    between atoms: _119  and  _122
REMARK   53  A    between atoms: _122  and  _123
REMARK   54  A    between atoms: _125  and  _127
REMARK   55  A    between atoms: _127  and  _128
REMARK   56  A    between atoms: _127  and  _130
REMARK   57  A    between atoms: _130  and  _131
REMARK   58  A    between atoms: _133  and  _135
REMARK   59  A    between atoms: _135  and  _136
REMARK   60  A    between atoms: _135  and  _138
REMARK   61  A    between atoms: _138  and  _139
REMARK   62  A    between atoms: _144  and  _146
REMARK   63  A    between atoms: _146  and  _147
REMARK   64  A    between atoms: _146  and  _149
REMARK   65  A    between atoms: _149  and  _150
REMARK   66  A    between atoms: _155  and  _156
REMARK   67  A    between atoms: _158  and  _160
REMARK   68  A    between atoms: _160  and  _161
REMARK   69  A    between atoms: _160  and  _163
REMARK   70  A    between atoms: _167  and  _168
REMARK   71  A    between atoms: _173  and  _175
REMARK   72  A    between atoms: _175  and  _176
REMARK   73  A    between atoms: _175  and  _178
REMARK   74  A    between atoms: _178  and  _179
REMARK   75  A    between atoms: _184  and  _185
REMARK   76  A    between atoms: _187  and  _189
REMARK   77  A    between atoms: _189  and  _190
REMARK   78  A    between atoms: _189  and  _192
REMARK   79  A    between atoms: _192  and  _193
REMARK   80  A    between atoms: _196  and  _198
REMARK   81  A    between atoms: _198  and  _199
REMARK   82  A    between atoms: _198  and  _201
REMARK   83  A    between atoms: _201  and  _202
REMARK   84  A    between atoms: _202  and  _203
REMARK   85  A    between atoms: _208  and  _210
REMARK   86  A    between atoms: _210  and  _211
REMARK   87  A    between atoms: _213  and  _215
REMARK   88  A    between atoms: _215  and  _216
REMARK   89  A    between atoms: _215  and  _218
REMARK   90  A    between atoms: _218  and  _219
REMARK   91  A    between atoms: _219  and  _220
REMARK   92  A    between atoms: _220  and  _221
REMARK   93  A    between atoms: _221  and  _222
REMARK   94  A    between atoms: _226  and  _228
REMARK   95  A    between atoms: _228  and  _229
REMARK   96  A    between atoms: _228  and  _231
REMARK   97  A    between atoms: _231  and  _232
REMARK   98  A    between atoms: _242  and  _244
REMARK   99  A    between atoms: _244  and  _245
REMARK  100  A    between atoms: _244  and  _247
REMARK  101  A    between atoms: _247  and  _248
REMARK  102  A    between atoms: _251  and  _253
REMARK  103  A    between atoms: _253  and  _254
REMARK  104  A    between atoms: _253  and  _256
REMARK  105  A    between atoms: _256  and  _257
REMARK  106  A    between atoms: _257  and  _258
REMARK  107  A    between atoms: _258  and  _259
REMARK  108  A    between atoms: _259  and  _260
REMARK  109  A    between atoms: _264  and  _266
REMARK  110  A    between atoms: _266  and  _267
REMARK  111  A    between atoms: _266  and  _269
REMARK  112  A    between atoms: _269  and  _270
REMARK  113  A    between atoms: _276  and  _278
REMARK  114  A    between atoms: _278  and  _279
REMARK  115  A    between atoms: _278  and  _281
REMARK  116  A    between atoms: _281  and  _282
REMARK  117  A    between atoms: _288  and  _290
REMARK  118  A    between atoms: _290  and  _291
REMARK  119  A    between atoms: _290  and  _293
REMARK  120  A    between atoms: _293  and  _294
REMARK  121  A    between atoms: _297  and  _299
REMARK  122  A    between atoms: _299  and  _300
REMARK  123  A    between atoms: _299  and  _302
REMARK  124  A    between atoms: _302  and  _303
REMARK  125  A    between atoms: _305  and  _307
REMARK  126  A    between atoms: _307  and  _308
REMARK  127  A    between atoms: _307  and  _310
REMARK  128  A    between atoms: _310  and  _311
REMARK  129  A    between atoms: _321  and  _323
REMARK  130  A    between atoms: _323  and  _324
REMARK  131  A    between atoms: _326  and  _328
REMARK  132  A    between atoms: _328  and  _329
REMARK  133  A    between atoms: _328  and  _331
REMARK  134  A    between atoms: _331  and  _332
REMARK  135  A    between atoms: _335  and  _337
REMARK  136  A    between atoms: _337  and  _338
REMARK  137  A    between atoms: _337  and  _340
REMARK  138  A    between atoms: _340  and  _341
REMARK  139  A    between atoms: _344  and  _346
REMARK  140  A    between atoms: _346  and  _347
REMARK  141  A    between atoms: _349  and  _351
REMARK  142  A    between atoms: _351  and  _352
REMARK  143  A    between atoms: _355  and  _357
REMARK  144  A    between atoms: _357  and  _358
REMARK  145  A    between atoms: _357  and  _360
REMARK  146  A    between atoms: _360  and  _361
REMARK  147  A    between atoms: _366  and  _367
REMARK  148  A    between atoms: _369  and  _371
REMARK  149  A    between atoms: _371  and  _372
REMARK  150  A    between atoms: _371  and  _374
REMARK  151  A    between atoms: _374  and  _375
REMARK  152  A    between atoms: _375  and  _376
REMARK  153  A    between atoms: _379  and  _381
REMARK  154  A    between atoms: _381  and  _382
REMARK  155  A    between atoms: _381  and  _384
REMARK  156  A    between atoms: _384  and  _385
REMARK  157  A    between atoms: _388  and  _390
REMARK  158  A    between atoms: _390  and  _391
REMARK  159  A    between atoms: _394  and  _396
REMARK  160  A    between atoms: _396  and  _397
REMARK  161  A    between atoms: _396  and  _399
REMARK  162  A    between atoms: _399  and  _400
REMARK  163  A    between atoms: _400  and  _401
REMARK  164  A    between atoms: _401  and  _402
REMARK  165  A    between atoms: _411  and  _413
REMARK  166  A    between atoms: _413  and  _414
REMARK  167  A    between atoms: _413  and  _416
REMARK  168  A    between atoms: _416  and  _417
REMARK  169  A    between atoms: _420  and  _422
REMARK  170  A    between atoms: _422  and  _423
REMARK  171  A    between atoms: _422  and  _425
REMARK  172  A    between atoms: _425  and  _426
REMARK  173  A    between atoms: _436  and  _438
REMARK  174  A    between atoms: _438  and  _439
REMARK  175  A    between atoms: _438  and  _441
REMARK  176  A    between atoms: _441  and  _442
REMARK  177  A    between atoms: _447  and  _448
REMARK  178  A    between atoms: _450  and  _452
REMARK  179  A    between atoms: _452  and  _453
REMARK  180  A    between atoms: _452  and  _455
REMARK  181  A    between atoms: _455  and  _456
REMARK  182  A    between atoms: _461  and  _462
REMARK  183  A    between atoms: _464  and  _466
REMARK  184  A    between atoms: _466  and  _467
REMARK  185  A    between atoms: _466  and  _469
REMARK  186  A    between atoms: _469  and  _470
REMARK  187  A    between atoms: _470  and  _471
REMARK  188  A    between atoms: _471  and  _472
REMARK  189  A    between atoms: _472  and  _473
REMARK  190  A    between atoms: _477  and  _479
REMARK  191  A    between atoms: _479  and  _480
REMARK  192  A    between atoms: _479  and  _482
REMARK  193  A    between atoms: _482  and  _483
REMARK  194  A    between atoms: _486  and  _488
REMARK  195  A    between atoms: _488  and  _489
REMARK  196  A    between atoms: _488  and  _491
REMARK  197  A    between atoms: _494  and  _496
REMARK  198  A    between atoms: _496  and  _497
REMARK  199  A    between atoms: _496  and  _499
REMARK  200  A    between atoms: _499  and  _500
REMARK  201  A    between atoms: _503  and  _505
REMARK  202  A    between atoms: _505  and  _506
REMARK  203  A    between atoms: _505  and  _508
REMARK  204  A    between atoms: _508  and  _509
REMARK  205  A    between atoms: _511  and  _513
REMARK  206  A    between atoms: _513  and  _514
REMARK  207  A    between atoms: _516  and  _518
REMARK  208  A    between atoms: _518  and  _519
REMARK  209  A    between atoms: _518  and  _521
REMARK  210  A    between atoms: _521  and  _522
REMARK  211  A    between atoms: _525  and  _527
REMARK  212  A    between atoms: _527  and  _528
REMARK  213  A    between atoms: _527  and  _530
REMARK  214  A    between atoms: _530  and  _531
REMARK  215  A    between atoms: _534  and  _536
REMARK  216  A    between atoms: _536  and  _537
REMARK  217  A    between atoms: _536  and  _539
REMARK  218  A    between atoms: _539  and  _540
REMARK  219  A    between atoms: _545  and  _547
REMARK  220  A    between atoms: _547  and  _548
REMARK  221  A    between atoms: _547  and  _550
REMARK  222  A    between atoms: _550  and  _551
REMARK  223  A    between atoms: _554  and  _556
REMARK  224  A    between atoms: _556  and  _557
REMARK  225  A    between atoms: _556  and  _559
REMARK  226  A    between atoms: _559  and  _560
REMARK  227  A    between atoms: _560  and  _561
REMARK  228  A    between atoms: _561  and  _562
REMARK  229  A    between atoms: _571  and  _573
REMARK  230  A    between atoms: _573  and  _574
REMARK  231  A    between atoms: _573  and  _576
REMARK  232  A    between atoms: _576  and  _577
REMARK  233  A    between atoms: _580  and  _582
REMARK  234  A    between atoms: _582  and  _583
REMARK  235  A    between atoms: _585  and  _587
REMARK  236  A    between atoms: _587  and  _588
REMARK  237  A    between atoms: _587  and  _590
REMARK  238  A    between atoms: _590  and  _591
REMARK  239  A    between atoms: _591  and  _592
REMARK  240  A    between atoms: _592  and  _593
REMARK  241  A    between atoms: _602  and  _604
REMARK  242  A    between atoms: _604  and  _605
REMARK  243  A    between atoms: _604  and  _607
REMARK  244  A    between atoms: _607  and  _608
REMARK  245  A    between atoms: _608  and  _609
REMARK  246  A    between atoms: _609  and  _610
REMARK  247  A    between atoms: _610  and  _611
REMARK  248  A    between atoms: _615  and  _617
REMARK  249  A    between atoms: _617  and  _618
REMARK  250  A    between atoms: _617  and  _620
REMARK  251  A    between atoms: _620  and  _621
REMARK  252  A    between atoms: _627  and  _629
REMARK  253  A    between atoms: _629  and  _630
REMARK  254  A    between atoms: _633  and  _635
REMARK  255  A    between atoms: _635  and  _636
REMARK  256  A    between atoms: _635  and  _638
REMARK  257  A    between atoms: _638  and  _639
REMARK  258  A    between atoms: _642  and  _644
REMARK  259  A    between atoms: _644  and  _645
REMARK  260  A    between atoms: _644  and  _647
REMARK  261  A    between atoms: _647  and  _648
REMARK  262  A    between atoms: _650  and  _652
REMARK  263  A    between atoms: _652  and  _653
REMARK  264  A    between atoms: _652  and  _655
REMARK  265  A    between atoms: _655  and  _656
REMARK  266  A    between atoms: _656  and  _657
REMARK  267  A    between atoms: _662  and  _664
REMARK  268  A    between atoms: _664  and  _665
REMARK  269  A    between atoms: _664  and  _667
REMARK  270  A    between atoms: _667  and  _668
REMARK  271  A    between atoms: _670  and  _672
REMARK  272  A    between atoms: _672  and  _673
REMARK  273  A    between atoms: _672  and  _675
REMARK  274  A    between atoms: _675  and  _676
REMARK  275  A    between atoms: _679  and  _681
REMARK  276  A    between atoms: _681  and  _682
REMARK  277  A    between atoms: _684  and  _686
REMARK  278  A    between atoms: _686  and  _687
REMARK  279  A    between atoms: _686  and  _689
REMARK  280  A    between atoms: _689  and  _690
REMARK  281  A    between atoms: _693  and  _695
REMARK  282  A    between atoms: _695  and  _696
REMARK  283  A    between atoms: _695  and  _698
REMARK  284  A    between atoms: _701  and  _703
REMARK  285  A    between atoms: _703  and  _704
REMARK  286  A    between atoms: _706  and  _708
REMARK  287  A    between atoms: _708  and  _709
REMARK  288  A    between atoms: _712  and  _714
REMARK  289  A    between atoms: _714  and  _715
REMARK  290  A    between atoms: _714  and  _717
REMARK  291  A    between atoms: _720  and  _722
REMARK  292  A    between atoms: _722  and  _723
REMARK  293  A    between atoms: _722  and  _725
REMARK  294  A    between atoms: _725  and  _726
REMARK  295  A    between atoms: _726  and  _727
REMARK  296  A    between atoms: _729  and  _731
REMARK  297  A    between atoms: _731  and  _732
REMARK  298  A    between atoms: _731  and  _734
REMARK  299  A    between atoms: _734  and  _735
REMARK  300  A    between atoms: _735  and  _736
REMARK                            x       y       z     vdW  Elec       q    Type
REMARK                         _______ _______ _______ _____ _____    ______ ____
ROOT
ATOM      1  NE  ARG A   1      28.968  -2.783  14.288  0.00  0.00    -0.265 N 
ATOM      2  CZ  ARG A   1      28.787  -3.912  14.977  0.00  0.00    +0.342 C 
ATOM      3  NH2 ARG A   1      29.295  -4.038  16.200  0.00  0.00    -0.292 N 
ATOM      4 HH21 ARG A   1      29.152  -4.919  16.734  0.00  0.00    +0.255 HD
ATOM      5 HH22 ARG A   1      29.835  -3.256  16.622  0.00  0.00    +0.255 HD
ATOM      6  NH1 ARG A   1      28.112  -4.920  14.446  0.00  0.00    -0.292 N 
ATOM      7 HH11 ARG A   1      27.975  -5.797  14.988  0.00  0.00    +0.255 HD
ATOM      8 HH12 ARG A   1      27.719  -4.835  13.487  0.00  0.00    +0.255 HD
ATOM      9  HE  ARG A   1      29.503  -2.016  14.743  0.00  0.00    +0.259 HD
ENDROOT
BRANCH   1  10
ATOM     10  CD  ARG A   1      28.460  -2.554  12.926  0.00  0.00    +0.174 C 
BRANCH  10  11
ATOM     11  CG  ARG A   1      26.921  -2.232  12.861  0.00  0.00    +0.045 C 
BRANCH  11  12
ATOM     12  CB  ARG A   1      26.667  -0.765  13.029  0.00  0.00    +0.029 C 
BRANCH  12  13
ATOM     13  CA  ARG A   1      25.211  -0.252  12.940  0.00  0.00    +0.133 C 
BRANCH  13  14
ATOM     14  N   ARG A   1      25.171   1.014  13.674  0.00  0.00    -0.239 NA
ATOM     15  H   ARG A   1      25.831   1.144  14.467  0.00  0.00    +0.142 HD
ENDBRANCH  13  14
BRANCH  13  16
ATOM     16  C   ARG A   1      24.168  -1.263  13.459  0.00  0.00    +0.224 C 
ATOM     17  O   ARG A   1      24.077  -1.523  14.641  0.00  0.00    -0.287 OA
ENDBRANCH  13  16
ENDBRANCH  12  13
ENDBRANCH  11  12
ENDBRANCH  10  11
ENDBRANCH   1  10
TORSDOF 6
REMARK  Name = ../refined-set-2016/4gid/4gid_pocket.pdb
REMARK  300 active torsions:
REMARK  status: ('A' for Active; 'I' for Inactive)
REMARK    1  A    between atoms: _1  and  _3
REMARK    2  A    between atoms: _3  and  _4
REMARK    3  A    between atoms: _6  and  _8
REMARK    4  A    between atoms: _8  and  _9
REMARK    5  A    between atoms: _8  and  _11
REMARK    6  A    between atoms: _11  and  _12
REMARK    7  A    between atoms: _12  and  _13
REMARK    8  A    between atoms: _13  and  _14
REMARK    9  A    between atoms: _14  and  _15
REMARK   10  A    between atoms: _19  and  _21
REMARK   11  A    between atoms: _21  and  _22
REMARK   12  A    between atoms: _21  and  _24
REMARK   13  A    between atoms: _24  and  _25
REMARK   14  A    between atoms: _27  and  _29
REMARK   15  A    between atoms: _29  and  _30
REMARK   16  A    between atoms: _32  and  _34
REMARK   17  A    between atoms: _34  and  _35
REMARK   18  A    between atoms: _34  and  _37
REMARK   19  A    between atoms: _37  and  _38
REMARK   20  A    between atoms: _38  and  _39
REMARK   21  A    between atoms: _44  and  _46
REMARK   22  A    between atoms: _46  and  _47
REMARK   23  A    between atoms: _49  and  _51
REMARK   24  A    between atoms: _51  and  _52
REMARK   25  A    between atoms: _51  and  _54
REMARK   26  A    between atoms: _54  and  _55
REMARK   27  A    between atoms: _60  and  _61
REMARK   28  A    between atoms: _63  and  _65
REMARK   29  A    between atoms: _65  and  _66
REMARK   30  A    between atoms: _65  and  _68
REMARK   31  A    between atoms: _68  and  _69
REMARK   32  A    between atoms: _74  and  _75
REMARK   33  A    between atoms: _77  and  _79
REMARK   34  A    between atoms: _79  and  _80
REMARK   35  A    between atoms: _79  and  _82
REMARK   36  A    between atoms: _82  and  _83
REMARK   37  A    between atoms: _86  and  _88
REMARK   38  A    between atoms: _88  and  _89
REMARK   39  A    between atoms: _88  and  _91
REMARK   40  A    between atoms: _94  and  _96
REMARK   41  A    between atoms: _96  and  _97
REMARK   42  A    between atoms: _96  and  _99
REMARK   43  A    between atoms: _99  and  _100
REMARK   44  A    between atoms: _103  and  _105
REMARK   45  A    between atoms: _105  and  _106
REMARK   46  A    between atoms: _105  and  _108
REMARK   47  A    between atoms: _108  and  _109
REMARK   48  A    between atoms: _112  and  _114
REMARK   49  A    between atoms: _114  and  _115
REMARK   50  A    between atoms: _117  and  _119
REMARK   51  A    between atoms: _119  and  _120
REMARK   52  A    between atoms: _119  and  _122
REMARK   53  A    between atoms: _122  and  _123
REMARK   54  A    between atoms: _125  and  _127
REMARK   55  A    between atoms: _127  and  _128
REMARK   56  A    between atoms: _127  and  _130
REMARK   57  A    between atoms: _130  and  _131
REMARK   58  A    between atoms: _133  and  _135
REMARK   59  A    between atoms: _135  and  _136
REMARK   60  A    between atoms: _135  and  _138
REMARK   61  A    between atoms: _138  and  _139
REMARK   62  A    between atoms: _144  and  _146
REMARK   63  A    between atoms: _146  and  _147
REMARK   64  A    between atoms: _146  and  _149
REMARK   65  A    between atoms: _149  and  _150
REMARK   66  A    between atoms: _155  and  _156
REMARK   67  A    between atoms: _158  and  _160
REMARK   68  A    between atoms: _160  and  _161
REMARK   69  A    between atoms: _160  and  _163
REMARK   70  A    between atoms: _167  and  _168
REMARK   71  A    between atoms: _173  and  _175
REMARK   72  A    between atoms: _175  and  _176
REMARK   73  A    between atoms: _175  and  _178
REMARK   74  A    between atoms: _178  and  _179
REMARK   75  A    between atoms: _184  and  _185
REMARK   76  A    between atoms: _187  and  _189
REMARK   77  A    between atoms: _189  and  _190
REMARK   78  A    between atoms: _189  and  _192
REMARK   79  A    between atoms: _192  and  _193
REMARK   80  A    between atoms: _196  and  _198
REMARK   81  A    between atoms: _198  and  _199
REMARK   82  A    between atoms: _198  and  _201
REMARK   83  A    between atoms: _201  and  _202
REMARK   84  A    between atoms: _202  and  _203
REMARK   85  A    between atoms: _208  and  _210
REMARK   86  A    between atoms: _210  and  _211
REMARK   87  A    between atoms: _213  and  _215
REMARK   88  A    between atoms: _215  and  _216
REMARK   89  A    between atoms: _215  and  _218
REMARK   90  A    between atoms: _218  and  _219
REMARK   91  A    between atoms: _219  and  _220
REMARK   92  A    between atoms: _220  and  _221
REMARK   93  A    between atoms: _221  and  _222
REMARK   94  A    between atoms: _226  and  _228
REMARK   95  A    between atoms: _228  and  _229
REMARK   96  A    between atoms: _228  and  _231
REMARK   97  A    between atoms: _231  and  _232
REMARK   98  A    between atoms: _242  and  _244
REMARK   99  A    between atoms: _244  and  _245
REMARK  100  A    between atoms: _244  and  _247
REMARK  101  A    between atoms: _247  and  _248
REMARK  102  A    between atoms: _251  and  _253
REMARK  103  A    between atoms: _253  and  _254
REMARK  104  A    between atoms: _253  and  _256
REMARK  105  A    between atoms: _256  and  _257
REMARK  106  A    between atoms: _257  and  _258
REMARK  107  A    between atoms: _258  and  _259
REMARK  108  A    between atoms: _259  and  _260
REMARK  109  A    between atoms: _264  and  _266
REMARK  110  A    between atoms: _266  and  _267
REMARK  111  A    between atoms: _266  and  _269
REMARK  112  A    between atoms: _269  and  _270
REMARK  113  A    between atoms: _276  and  _278
REMARK  114  A    between atoms: _278  and  _279
REMARK  115  A    between atoms: _278  and  _281
REMARK  116  A    between atoms: _281  and  _282
REMARK  117  A    between atoms: _288  and  _290
REMARK  118  A    between atoms: _290  and  _291
REMARK  119  A    between atoms: _290  and  _293
REMARK  120  A    between atoms: _293  and  _294
REMARK  121  A    between atoms: _297  and  _299
REMARK  122  A    between atoms: _299  and  _300
REMARK  123  A    between atoms: _299  and  _302
REMARK  124  A    between atoms: _302  and  _303
REMARK  125  A    between atoms: _305  and  _307
REMARK  126  A    between atoms: _307  and  _308
REMARK  127  A    between atoms: _307  and  _310
REMARK  128  A    between atoms: _310  and  _311
REMARK  129  A    between atoms: _321  and  _323
REMARK  130  A    between atoms: _323  and  _324
REMARK  131  A    between atoms: _326  and  _328
REMARK  132  A    between atoms: _328  and  _329
REMARK  133  A    between atoms: _328  and  _331
REMARK  134  A    between atoms: _331  and  _332
REMARK  135  A    between atoms: _335  and  _337
REMARK  136  A    between atoms: _337  and  _338
REMARK  137  A    between atoms: _337  and  _340
REMARK  138  A    between atoms: _340  and  _341
REMARK  139  A    between atoms: _344  and  _346
REMARK  140  A    between atoms: _346  and  _347
REMARK  141  A    between atoms: _349  and  _351
REMARK  142  A    between atoms: _351  and  _352
REMARK  143  A    between atoms: _355  and  _357
REMARK  144  A    between atoms: _357  and  _358
REMARK  145  A    between atoms: _357  and  _360
REMARK  146  A    between atoms: _360  and  _361
REMARK  147  A    between atoms: _366  and  _367
REMARK  148  A    between atoms: _369  and  _371
REMARK  149  A    between atoms: _371  and  _372
REMARK  150  A    between atoms: _371  and  _374
REMARK  151  A    between atoms: _374  and  _375
REMARK  152  A    between atoms: _375  and  _376
REMARK  153  A    between atoms: _379  and  _381
REMARK  154  A    between atoms: _381  and  _382
REMARK  155  A    between atoms: _381  and  _384
REMARK  156  A    between atoms: _384  and  _385
REMARK  157  A    between atoms: _388  and  _390
REMARK  158  A    between atoms: _390  and  _391
REMARK  159  A    between atoms: _394  and  _396
REMARK  160  A    between atoms: _396  and  _397
REMARK  161  A    between atoms: _396  and  _399
REMARK  162  A    between atoms: _399  and  _400
REMARK  163  A    between atoms: _400  and  _401
REMARK  164  A    between atoms: _401  and  _402
REMARK  165  A    between atoms: _411  and  _413
REMARK  166  A    between atoms: _413  and  _414
REMARK  167  A    between atoms: _413  and  _416
REMARK  168  A    between atoms: _416  and  _417
REMARK  169  A    between atoms: _420  and  _422
REMARK  170  A    between atoms: _422  and  _423
REMARK  171  A    between atoms: _422  and  _425
REMARK  172  A    between atoms: _425  and  _426
REMARK  173  A    between atoms: _436  and  _438
REMARK  174  A    between atoms: _438  and  _439
REMARK  175  A    between atoms: _438  and  _441
REMARK  176  A    between atoms: _441  and  _442
REMARK  177  A    between atoms: _447  and  _448
REMARK  178  A    between atoms: _450  and  _452
REMARK  179  A    between atoms: _452  and  _453
REMARK  180  A    between atoms: _452  and  _455
REMARK  181  A    between atoms: _455  and  _456
REMARK  182  A    between atoms: _461  and  _462
REMARK  183  A    between atoms: _464  and  _466
REMARK  184  A    between atoms: _466  and  _467
REMARK  185  A    between atoms: _466  and  _469
REMARK  186  A    between atoms: _469  and  _470
REMARK  187  A    between atoms: _470  and  _471
REMARK  188  A    between atoms: _471  and  _472
REMARK  189  A    between atoms: _472  and  _473
REMARK  190  A    between atoms: _477  and  _479
REMARK  191  A    between atoms: _479  and  _480
REMARK  192  A    between atoms: _479  and  _482
REMARK  193  A    between atoms: _482  and  _483
REMARK  194  A    between atoms: _486  and  _488
REMARK  195  A    between atoms: _488  and  _489
REMARK  196  A    between atoms: _488  and  _491
REMARK  197  A    between atoms: _494  and  _496
REMARK  198  A    between atoms: _496  and  _497
REMARK  199  A    between atoms: _496  and  _499
REMARK  200  A    between atoms: _499  and  _500
REMARK  201  A    between atoms: _503  and  _505
REMARK  202  A    between atoms: _505  and  _506
REMARK  203  A    between atoms: _505  and  _508
REMARK  204  A    between atoms: _508  and  _509
REMARK  205  A    between atoms: _511  and  _513
REMARK  206  A    between atoms: _513  and  _514
REMARK  207  A    between atoms: _516  and  _518
REMARK  208  A    between atoms: _518  and  _519
REMARK  209  A    between atoms: _518  and  _521
REMARK  210  A    between atoms: _521  and  _522
REMARK  211  A    between atoms: _525  and  _527
REMARK  212  A    between atoms: _527  and  _528
REMARK  213  A    between atoms: _527  and  _530
REMARK  214  A    between atoms: _530  and  _531
REMARK  215  A    between atoms: _534  and  _536
REMARK  216  A    between atoms: _536  and  _537
REMARK  217  A    between atoms: _536  and  _539
REMARK  218  A    between atoms: _539  and  _540
REMARK  219  A    between atoms: _545  and  _547
REMARK  220  A    between atoms: _547  and  _548
REMARK  221  A    between atoms: _547  and  _550
REMARK  222  A    between atoms: _550  and  _551
REMARK  223  A    between atoms: _554  and  _556
REMARK  224  A    between atoms: _556  and  _557
REMARK  225  A    between atoms: _556  and  _559
REMARK  226  A    between atoms: _559  and  _560
REMARK  227  A    between atoms: _560  and  _561
REMARK  228  A    between atoms: _561  and  _562
REMARK  229  A    between atoms: _571  and  _573
REMARK  230  A    between atoms: _573  and  _574
REMARK  231  A    between atoms: _573  and  _576
REMARK  232  A    between atoms: _576  and  _577
REMARK  233  A    between atoms: _580  and  _582
REMARK  234  A    between atoms: _582  and  _583
REMARK  235  A    between atoms: _585  and  _587
REMARK  236  A    between atoms: _587  and  _588
REMARK  237  A    between atoms: _587  and  _590
REMARK  238  A    between atoms: _590  and  _591
REMARK  239  A    between atoms: _591  and  _592
REMARK  240  A    between atoms: _592  and  _593
REMARK  241  A    between atoms: _602  and  _604
REMARK  242  A    between atoms: _604  and  _605
REMARK  243  A    between atoms: _604  and  _607
REMARK  244  A    between atoms: _607  and  _608
REMARK  245  A    between atoms: _608  and  _609
REMARK  246  A    between atoms: _609  and  _610
REMARK  247  A    between atoms: _610  and  _611
REMARK  248  A    between atoms: _615  and  _617
REMARK  249  A    between atoms: _617  and  _618
REMARK  250  A    between atoms: _617  and  _620
REMARK  251  A    between atoms: _620  and  _621
REMARK  252  A    between atoms: _627  and  _629
REMARK  253  A    between atoms: _629  and  _630
REMARK  254  A    between atoms: _633  and  _635
REMARK  255  A    between atoms: _635  and  _636
REMARK  256  A    between atoms: _635  and  _638
REMARK  257  A    between atoms: _638  and  _639
REMARK  258  A    between atoms: _642  and  _644
REMARK  259  A    between atoms: _644  and  _645
REMARK  260  A    between atoms: _644  and  _647
REMARK  261  A    between atoms: _647  and  _648
REMARK  262  A    between atoms: _650  and  _652
REMARK  263  A    between atoms: _652  and  _653
REMARK  264  A    between atoms: _652  and  _655
REMARK  265  A    between atoms: _655  and  _656
REMARK  266  A    between atoms: _656  and  _657
REMARK  267  A    between atoms: _662  and  _664
REMARK  268  A    between atoms: _664  and  _665
REMARK  269  A    between atoms: _664  and  _667
REMARK  270  A    between atoms: _667  and  _668
REMARK  271  A    between atoms: _670  and  _672
REMARK  272  A    between atoms: _672  and  _673
REMARK  273  A    between atoms: _672  and  _675
REMARK  274  A    between atoms: _675  and  _676
REMARK  275  A    between atoms: _679  and  _681
REMARK  276  A    between atoms: _681  and  _682
REMARK  277  A    between atoms: _684  and  _686
REMARK  278  A    between atoms: _686  and  _687
REMARK  279  A    between atoms: _686  and  _689
REMARK  280  A    between atoms: _689  and  _690
REMARK  281  A    between atoms: _693  and  _695
REMARK  282  A    between atoms: _695  and  _696
REMARK  283  A    between atoms: _695  and  _698
REMARK  284  A    between atoms: _701  and  _703
REMARK  285  A    between atoms: _703  and  _704
REMARK  286  A    between atoms: _706  and  _708
REMARK  287  A    between atoms: _708  and  _709
REMARK  288  A    between atoms: _712  and  _714
REMARK  289  A    between atoms: _714  and  _715
REMARK  290  A    between atoms: _714  and  _717
REMARK  291  A    between atoms: _720  and  _722
REMARK  292  A    between atoms: _722  and  _723
REMARK  293  A    between atoms: _722  and  _725
REMARK  294  A    between atoms: _725  and  _726
REMARK  295  A    between atoms: _726  and  _727
REMARK  296  A    between atoms: _729  and  _731
REMARK  297  A    between atoms: _731  and  _732
REMARK  298  A    between atoms: _731  and  _734
REMARK  299  A    between atoms: _734  and  _735
REMARK  300  A    between atoms: _735  and  _736
REMARK                            x       y       z     vdW  Elec       q    Type
REMARK                         _______ _______ _______ _____ _____    ______ ____
ROOT
ATOM      1  CA  ILE A   4      32.245   5.606  16.378  0.00  0.00    +0.149 C 
ENDROOT
BRANCH   1   3
ATOM      2  C   ALA A   3      31.161   3.660  15.411  0.00  0.00    +0.241 C 
ATOM      3  N   ILE A   4      31.209   4.576  16.365  0.00  0.00    -0.297 N 
ATOM      4  H   ILE A   4      30.495   4.562  17.121  0.00  0.00    +0.150 HD
ATOM      5  O   ALA A   3      31.926   3.680  14.425  0.00  0.00    -0.273 OA
BRANCH   2   6
ATOM      6  CA  ALA A   3      30.088   2.570  15.583  0.00  0.00    +0.149 C 
ATOM      7  CB  ALA A   3      29.799   1.873  14.253  0.00  0.00    +0.031 C 
BRANCH   6  10
ATOM      8  C   PHE A   2      28.609   2.694  17.483  0.00  0.00    +0.241 C 
ATOM      9  O   PHE A   2      29.475   2.178  18.211  0.00  0.00    -0.273 OA
ATOM     10  N   ALA A   3      28.830   2.958  16.199  0.00  0.00    -0.297 N 
ATOM     11  H   ALA A   3      28.103   3.442  15.635  0.00  0.00    +0.150 HD
BRANCH   8  12
ATOM     12  CA  PHE A   2      27.230   3.066  18.053  0.00  0.00    +0.153 C 
BRANCH  12  14
ATOM     13  C   LYS A   1      26.094   0.919  17.537  0.00  0.00    +0.238 C 
ATOM     14  N   PHE A   2      26.611   1.773  18.415  0.00  0.00    -0.297 N 
ATOM     15  H   PHE A   2      26.578   1.515  19.422  0.00  0.00    +0.150 HD
ATOM     16  O   LYS A   1      26.032   1.137  16.332  0.00  0.00    -0.274 OA
BRANCH  13  17
ATOM     17  CA  LYS A   1      25.546  -0.389  18.107  0.00  0.00    +0.145 C 
BRANCH  17  18
ATOM     18  N   LYS A   1      24.374  -0.685  17.315  0.00  0.00    -0.238 NA
ATOM     19  H   LYS A   1      24.486  -0.878  16.299  0.00  0.00    +0.142 HD
ENDBRANCH  17  18
BRANCH  17  20
ATOM     20  CB  LYS A   1      26.603  -1.483  17.950  0.00  0.00    +0.026 C 
BRANCH  20  21
ATOM     21  CG  LYS A   1      28.002  -1.021  18.386  0.00  0.00    -0.000 C 
BRANCH  21  22
ATOM     22  CD  LYS A   1      29.059  -2.138  18.258  0.00  0.00    -0.024 C 
BRANCH  22  23
ATOM     23  CE  LYS A   1      30.431  -1.659  18.743  0.00  0.00    -0.086 C 
BRANCH  23  24
ATOM     24  NZ  LYS A   1      31.508  -2.712  18.597  0.00  0.00    +0.380 N 
ATOM     25  HZ1 LYS A   1      31.249  -3.551  19.155  0.00  0.00    -0.089 HD
ATOM     26  HZ2 LYS A   1      32.413  -2.331  18.941  0.00  0.00    -0.089 HD
ATOM     27  HZ3 LYS A   1      31.600  -2.976  17.595  0.00  0.00    -0.089 HD
ENDBRANCH  23  24
ENDBRANCH  22  23
ENDBRANCH  21  22
ENDBRANCH  20  21
ENDBRANCH  17  20
ENDBRANCH  13  17
ENDBRANCH  12  14
BRANCH  12  28
ATOM     28  CB  PHE A   2      27.393   3.896  19.333  0.00  0.00    +0.055 C 
BRANCH  28  29
ATOM     29  CG  PHE A   2      27.972   5.259  19.127  0.00  0.00    -0.020 A 
ATOM     30  CD2 PHE A   2      29.174   5.620  19.758  0.00  0.00    -0.004 A 
ATOM     31  CE2 PHE A   2      29.694   6.922  19.645  0.00  0.00    -0.000 A 
ATOM     32  CZ  PHE A   2      29.000   7.880  18.886  0.00  0.00    -0.000 A 
ATOM     33  CE1 PHE A   2      27.797   7.518  18.247  0.00  0.00    -0.000 A 
ATOM     34  CD1 PHE A   2      27.294   6.211  18.370  0.00  0.00    -0.004 A 
ENDBRANCH  28  29
ENDBRANCH  12  28
ENDBRANCH   8  12
ENDBRANCH   6  10
ENDBRANCH   2   6
ENDBRANCH   1   3
BRANCH   1  35
ATOM     35  C   ILE A   4      32.959   5.331  17.702  0.00  0.00    +0.241 C 
ATOM     36  O   ILE A   4      32.313   5.233  18.756  0.00  0.00    -0.273 OA
ATOM     37  N   SER A   5      34.280   5.159  17.638  0.00  0.00    -0.295 N 
ATOM     38  H   SER A   5      34.766   5.270  16.725  0.00  0.00    +0.150 HD
BRANCH  37  39
ATOM     39  CA  SER A   5      35.055   4.818  18.828  0.00  0.00    +0.178 C 
BRANCH  39  40
ATOM     40  C   SER A   5      36.399   5.534  18.870  0.00  0.00    +0.243 C 
ATOM     41  N   GLN A   6      37.121   5.421  19.982  0.00  0.00    -0.297 N 
ATOM     42  H   GLN A   6      36.783   4.840  20.776  0.00  0.00    +0.150 HD
ATOM     43  O   SER A   5      36.795   6.174  17.903  0.00  0.00    -0.273 OA
BRANCH  41  44
ATOM     44  CA  GLN A   6      38.390   6.124  20.066  0.00  0.00    +0.149 C 
BRANCH  44  45
ATOM     45  C   GLN A   6      39.617   5.343  19.621  0.00  0.00    +0.241 C 
ATOM     46  O   GLN A   6      39.637   4.111  19.626  0.00  0.00    -0.273 OA
ATOM     47  N   SER A   7      40.637   6.100  19.230  0.00  0.00    -0.296 N 
ATOM     48  H   SER A   7      40.536   7.134  19.282  0.00  0.00    +0.150 HD
BRANCH  47  49
ATOM     49  CA  SER A   7      41.888   5.549  18.733  0.00  0.00    +0.166 C 
BRANCH  49  50
ATOM     50  CB  SER A   7      43.082   6.284  19.327  0.00  0.00    +0.229 C 
ATOM     51  OG  SER A   7      43.003   7.480  19.602  0.00  0.00    -0.286 OA
ENDBRANCH  49  50
BRANCH  49  52
ATOM     52  C   SER A   7      41.945   5.709  17.213  0.00  0.00    +0.165 C 
BRANCH  52  53
ATOM     53  O   SER A   7      43.223   5.364  16.704  0.00  0.00    -0.380 OA
ATOM     54  H   SER A   7      43.227   5.478  15.721  0.00  0.00    +0.211 HD
ENDBRANCH  52  53
ENDBRANCH  49  52
ENDBRANCH  47  49
ENDBRANCH  44  45
BRANCH  44  55
ATOM     55  CB  GLN A   6      38.607   6.687  21.471  0.00  0.00    +0.039 C 
BRANCH  55  56
ATOM     56  CG  GLN A   6      38.589   5.661  22.560  0.00  0.00    +0.087 C 
BRANCH  56  57
ATOM     57  CD  GLN A   6      38.743   6.304  23.922  0.00  0.00    +0.219 C 
ATOM     58  NE2 GLN A   6      37.680   6.242  24.732  0.00  0.00    -0.329 N 
ATOM     59 HE21 GLN A   6      37.719   6.678  25.675  0.00  0.00    +0.145 HD
ATOM     60 HE22 GLN A   6      36.815   5.758  24.418  0.00  0.00    +0.145 HD
ATOM     61  OE1 GLN A   6      39.802   6.866  24.238  0.00  0.00    -0.275 OA
ENDBRANCH  56  57
ENDBRANCH  55  56
ENDBRANCH  44  55
ENDBRANCH  41  44
ENDBRANCH  39  40
BRANCH  39  62
ATOM     62  CB  SER A   5      35.253   3.287  18.875  0.00  0.00    +0.166 C 
BRANCH  62  63
ATOM     63  OG  SER A   5      35.775   2.789  17.639  0.00  0.00    -0.380 OA
ATOM     64  H   SER A   5      36.650   3.214  17.457  0.00  0.00    +0.211 HD
ENDBRANCH  62  63
ENDBRANCH  39  62
ENDBRANCH  37  39
ENDBRANCH   1  35
BRANCH   1  65
ATOM     65  CB  ILE A   4      31.663   7.015  16.366  0.00  0.00    +0.027 C 
ATOM     66  CG2 ILE A   4      32.805   8.051  16.482  0.00  0.00    +0.002 C 
BRANCH  65  67
ATOM     67  CG1 ILE A   4      30.825   7.220  15.087  0.00  0.00    +0.002 C 
ATOM     68  CD1 ILE A   4      30.259   8.618  14.967  0.00  0.00    +0.000 C 
ENDBRANCH  65  67
ENDBRANCH   1  65
TORSDOF 30
REMARK  Name = ../refined-set-2016/4gid/4gid_pocket.pdb
REMARK  300 active torsions:
REMARK  status: ('A' for Active; 'I' for Inactive)
REMARK    1  A    between atoms: _1  and  _3
REMARK    2  A    between atoms: _3  and  _4
REMARK    3  A    between atoms: _6  and  _8
REMARK    4  A    between atoms: _8  and  _9
REMARK    5  A    between atoms: _8  and  _11
REMARK    6  A    between atoms: _11  and  _12
REMARK    7  A    between atoms: _12  and  _13
REMARK    8  A    between atoms: _13  and  _14
REMARK    9  A    between atoms: _14  and  _15
REMARK   10  A    between atoms: _19  and  _21
REMARK   11  A    between atoms: _21  and  _22
REMARK   12  A    between atoms: _21  and  _24
REMARK   13  A    between atoms: _24  and  _25
REMARK   14  A    between atoms: _27  and  _29
REMARK   15  A    between atoms: _29  and  _30
REMARK   16  A    between atoms: _32  and  _34
REMARK   17  A    between atoms: _34  and  _35
REMARK   18  A    between atoms: _34  and  _37
REMARK   19  A    between atoms: _37  and  _38
REMARK   20  A    between atoms: _38  and  _39
REMARK   21  A    between atoms: _44  and  _46
REMARK   22  A    between atoms: _46  and  _47
REMARK   23  A    between atoms: _49  and  _51
REMARK   24  A    between atoms: _51  and  _52
REMARK   25  A    between atoms: _51  and  _54
REMARK   26  A    between atoms: _54  and  _55
REMARK   27  A    between atoms: _60  and  _61
REMARK   28  A    between atoms: _63  and  _65
REMARK   29  A    between atoms: _65  and  _66
REMARK   30  A    between atoms: _65  and  _68
REMARK   31  A    between atoms: _68  and  _69
REMARK   32  A    between atoms: _74  and  _75
REMARK   33  A    between atoms: _77  and  _79
REMARK   34  A    between atoms: _79  and  _80
REMARK   35  A    between atoms: _79  and  _82
REMARK   36  A    between atoms: _82  and  _83
REMARK   37  A    between atoms: _86  and  _88
REMARK   38  A    between atoms: _88  and  _89
REMARK   39  A    between atoms: _88  and  _91
REMARK   40  A    between atoms: _94  and  _96
REMARK   41  A    between atoms: _96  and  _97
REMARK   42  A    between atoms: _96  and  _99
REMARK   43  A    between atoms: _99  and  _100
REMARK   44  A    between atoms: _103  and  _105
REMARK   45  A    between atoms: _105  and  _106
REMARK   46  A    between atoms: _105  and  _108
REMARK   47  A    between atoms: _108  and  _109
REMARK   48  A    between atoms: _112  and  _114
REMARK   49  A    between atoms: _114  and  _115
REMARK   50  A    between atoms: _117  and  _119
REMARK   51  A    between atoms: _119  and  _120
REMARK   52  A    between atoms: _119  and  _122
REMARK   53  A    between atoms: _122  and  _123
REMARK   54  A    between atoms: _125  and  _127
REMARK   55  A    between atoms: _127  and  _128
REMARK   56  A    between atoms: _127  and  _130
REMARK   57  A    between atoms: _130  and  _131
REMARK   58  A    between atoms: _133  and  _135
REMARK   59  A    between atoms: _135  and  _136
REMARK   60  A    between atoms: _135  and  _138
REMARK   61  A    between atoms: _138  and  _139
REMARK   62  A    between atoms: _144  and  _146
REMARK   63  A    between atoms: _146  and  _147
REMARK   64  A    between atoms: _146  and  _149
REMARK   65  A    between atoms: _149  and  _150
REMARK   66  A    between atoms: _155  and  _156
REMARK   67  A    between atoms: _158  and  _160
REMARK   68  A    between atoms: _160  and  _161
REMARK   69  A    between atoms: _160  and  _163
REMARK   70  A    between atoms: _167  and  _168
REMARK   71  A    between atoms: _173  and  _175
REMARK   72  A    between atoms: _175  and  _176
REMARK   73  A    between atoms: _175  and  _178
REMARK   74  A    between atoms: _178  and  _179
REMARK   75  A    between atoms: _184  and  _185
REMARK   76  A    between atoms: _187  and  _189
REMARK   77  A    between atoms: _189  and  _190
REMARK   78  A    between atoms: _189  and  _192
REMARK   79  A    between atoms: _192  and  _193
REMARK   80  A    between atoms: _196  and  _198
REMARK   81  A    between atoms: _198  and  _199
REMARK   82  A    between atoms: _198  and  _201
REMARK   83  A    between atoms: _201  and  _202
REMARK   84  A    between atoms: _202  and  _203
REMARK   85  A    between atoms: _208  and  _210
REMARK   86  A    between atoms: _210  and  _211
REMARK   87  A    between atoms: _213  and  _215
REMARK   88  A    between atoms: _215  and  _216
REMARK   89  A    between atoms: _215  and  _218
REMARK   90  A    between atoms: _218  and  _219
REMARK   91  A    between atoms: _219  and  _220
REMARK   92  A    between atoms: _220  and  _221
REMARK   93  A    between atoms: _221  and  _222
REMARK   94  A    between atoms: _226  and  _228
REMARK   95  A    between atoms: _228  and  _229
REMARK   96  A    between atoms: _228  and  _231
REMARK   97  A    between atoms: _231  and  _232
REMARK   98  A    between atoms: _242  and  _244
REMARK   99  A    between atoms: _244  and  _245
REMARK  100  A    between atoms: _244  and  _247
REMARK  101  A    between atoms: _247  and  _248
REMARK  102  A    between atoms: _251  and  _253
REMARK  103  A    between atoms: _253  and  _254
REMARK  104  A    between atoms: _253  and  _256
REMARK  105  A    between atoms: _256  and  _257
REMARK  106  A    between atoms: _257  and  _258
REMARK  107  A    between atoms: _258  and  _259
REMARK  108  A    between atoms: _259  and  _260
REMARK  109  A    between atoms: _264  and  _266
REMARK  110  A    between atoms: _266  and  _267
REMARK  111  A    between atoms: _266  and  _269
REMARK  112  A    between atoms: _269  and  _270
REMARK  113  A    between atoms: _276  and  _278
REMARK  114  A    between atoms: _278  and  _279
REMARK  115  A    between atoms: _278  and  _281
REMARK  116  A    between atoms: _281  and  _282
REMARK  117  A    between atoms: _288  and  _290
REMARK  118  A    between atoms: _290  and  _291
REMARK  119  A    between atoms: _290  and  _293
REMARK  120  A    between atoms: _293  and  _294
REMARK  121  A    between atoms: _297  and  _299
REMARK  122  A    between atoms: _299  and  _300
REMARK  123  A    between atoms: _299  and  _302
REMARK  124  A    between atoms: _302  and  _303
REMARK  125  A    between atoms: _305  and  _307
REMARK  126  A    between atoms: _307  and  _308
REMARK  127  A    between atoms: _307  and  _310
REMARK  128  A    between atoms: _310  and  _311
REMARK  129  A    between atoms: _321  and  _323
REMARK  130  A    between atoms: _323  and  _324
REMARK  131  A    between atoms: _326  and  _328
REMARK  132  A    between atoms: _328  and  _329
REMARK  133  A    between atoms: _328  and  _331
REMARK  134  A    between atoms: _331  and  _332
REMARK  135  A    between atoms: _335  and  _337
REMARK  136  A    between atoms: _337  and  _338
REMARK  137  A    between atoms: _337  and  _340
REMARK  138  A    between atoms: _340  and  _341
REMARK  139  A    between atoms: _344  and  _346
REMARK  140  A    between atoms: _346  and  _347
REMARK  141  A    between atoms: _349  and  _351
REMARK  142  A    between atoms: _351  and  _352
REMARK  143  A    between atoms: _355  and  _357
REMARK  144  A    between atoms: _357  and  _358
REMARK  145  A    between atoms: _357  and  _360
REMARK  146  A    between atoms: _360  and  _361
REMARK  147  A    between atoms: _366  and  _367
REMARK  148  A    between atoms: _369  and  _371
REMARK  149  A    between atoms: _371  and  _372
REMARK  150  A    between atoms: _371  and  _374
REMARK  151  A    between atoms: _374  and  _375
REMARK  152  A    between atoms: _375  and  _376
REMARK  153  A    between atoms: _379  and  _381
REMARK  154  A    between atoms: _381  and  _382
REMARK  155  A    between atoms: _381  and  _384
REMARK  156  A    between atoms: _384  and  _385
REMARK  157  A    between atoms: _388  and  _390
REMARK  158  A    between atoms: _390  and  _391
REMARK  159  A    between atoms: _394  and  _396
REMARK  160  A    between atoms: _396  and  _397
REMARK  161  A    between atoms: _396  and  _399
REMARK  162  A    between atoms: _399  and  _400
REMARK  163  A    between atoms: _400  and  _401
REMARK  164  A    between atoms: _401  and  _402
REMARK  165  A    between atoms: _411  and  _413
REMARK  166  A    between atoms: _413  and  _414
REMARK  167  A    between atoms: _413  and  _416
REMARK  168  A    between atoms: _416  and  _417
REMARK  169  A    between atoms: _420  and  _422
REMARK  170  A    between atoms: _422  and  _423
REMARK  171  A    between atoms: _422  and  _425
REMARK  172  A    between atoms: _425  and  _426
REMARK  173  A    between atoms: _436  and  _438
REMARK  174  A    between atoms: _438  and  _439
REMARK  175  A    between atoms: _438  and  _441
REMARK  176  A    between atoms: _441  and  _442
REMARK  177  A    between atoms: _447  and  _448
REMARK  178  A    between atoms: _450  and  _452
REMARK  179  A    between atoms: _452  and  _453
REMARK  180  A    between atoms: _452  and  _455
REMARK  181  A    between atoms: _455  and  _456
REMARK  182  A    between atoms: _461  and  _462
REMARK  183  A    between atoms: _464  and  _466
REMARK  184  A    between atoms: _466  and  _467
REMARK  185  A    between atoms: _466  and  _469
REMARK  186  A    between atoms: _469  and  _470
REMARK  187  A    between atoms: _470  and  _471
REMARK  188  A    between atoms: _471  and  _472
REMARK  189  A    between atoms: _472  and  _473
REMARK  190  A    between atoms: _477  and  _479
REMARK  191  A    between atoms: _479  and  _480
REMARK  192  A    between atoms: _479  and  _482
REMARK  193  A    between atoms: _482  and  _483
REMARK  194  A    between atoms: _486  and  _488
REMARK  195  A    between atoms: _488  and  _489
REMARK  196  A    between atoms: _488  and  _491
REMARK  197  A    between atoms: _494  and  _496
REMARK  198  A    between atoms: _496  and  _497
REMARK  199  A    between atoms: _496  and  _499
REMARK  200  A    between atoms: _499  and  _500
REMARK  201  A    between atoms: _503  and  _505
REMARK  202  A    between atoms: _505  and  _506
REMARK  203  A    between atoms: _505  and  _508
REMARK  204  A    between atoms: _508  and  _509
REMARK  205  A    between atoms: _511  and  _513
REMARK  206  A    between atoms: _513  and  _514
REMARK  207  A    between atoms: _516  and  _518
REMARK  208  A    between atoms: _518  and  _519
REMARK  209  A    between atoms: _518  and  _521
REMARK  210  A    between atoms: _521  and  _522
REMARK  211  A    between atoms: _525  and  _527
REMARK  212  A    between atoms: _527  and  _528
REMARK  213  A    between atoms: _527  and  _530
REMARK  214  A    between atoms: _530  and  _531
REMARK  215  A    between atoms: _534  and  _536
REMARK  216  A    between atoms: _536  and  _537
REMARK  217  A    between atoms: _536  and  _539
REMARK  218  A    between atoms: _539  and  _540
REMARK  219  A    between atoms: _545  and  _547
REMARK  220  A    between atoms: _547  and  _548
REMARK  221  A    between atoms: _547  and  _550
REMARK  222  A    between atoms: _550  and  _551
REMARK  223  A    between atoms: _554  and  _556
REMARK  224  A    between atoms: _556  and  _557
REMARK  225  A    between atoms: _556  and  _559
REMARK  226  A    between atoms: _559  and  _560
REMARK  227  A    between atoms: _560  and  _561
REMARK  228  A    between atoms: _561  and  _562
REMARK  229  A    between atoms: _571  and  _573
REMARK  230  A    between atoms: _573  and  _574
REMARK  231  A    between atoms: _573  and  _576
REMARK  232  A    between atoms: _576  and  _577
REMARK  233  A    between atoms: _580  and  _582
REMARK  234  A    between atoms: _582  and  _583
REMARK  235  A    between atoms: _585  and  _587
REMARK  236  A    between atoms: _587  and  _588
REMARK  237  A    between atoms: _587  and  _590
REMARK  238  A    between atoms: _590  and  _591
REMARK  239  A    between atoms: _591  and  _592
REMARK  240  A    between atoms: _592  and  _593
REMARK  241  A    between atoms: _602  and  _604
REMARK  242  A    between atoms: _604  and  _605
REMARK  243  A    between atoms: _604  and  _607
REMARK  244  A    between atoms: _607  and  _608
REMARK  245  A    between atoms: _608  and  _609
REMARK  246  A    between atoms: _609  and  _610
REMARK  247  A    between atoms: _610  and  _611
REMARK  248  A    between atoms: _615  and  _617
REMARK  249  A    between atoms: _617  and  _618
REMARK  250  A    between atoms: _617  and  _620
REMARK  251  A    between atoms: _620  and  _621
REMARK  252  A    between atoms: _627  and  _629
REMARK  253  A    between atoms: _629  and  _630
REMARK  254  A    between atoms: _633  and  _635
REMARK  255  A    between atoms: _635  and  _636
REMARK  256  A    between atoms: _635  and  _638
REMARK  257  A    between atoms: _638  and  _639
REMARK  258  A    between atoms: _642  and  _644
REMARK  259  A    between atoms: _644  and  _645
REMARK  260  A    between atoms: _644  and  _647
REMARK  261  A    between atoms: _647  and  _648
REMARK  262  A    between atoms: _650  and  _652
REMARK  263  A    between atoms: _652  and  _653
REMARK  264  A    between atoms: _652  and  _655
REMARK  265  A    between atoms: _655  and  _656
REMARK  266  A    between atoms: _656  and  _657
REMARK  267  A    between atoms: _662  and  _664
REMARK  268  A    between atoms: _664  and  _665
REMARK  269  A    between atoms: _664  and  _667
REMARK  270  A    between atoms: _667  and  _668
REMARK  271  A    between atoms: _670  and  _672
REMARK  272  A    between atoms: _672  and  _673
REMARK  273  A    between atoms: _672  and  _675
REMARK  274  A    between atoms: _675  and  _676
REMARK  275  A    between atoms: _679  and  _681
REMARK  276  A    between atoms: _681  and  _682
REMARK  277  A    between atoms: _684  and  _686
REMARK  278  A    between atoms: _686  and  _687
REMARK  279  A    between atoms: _686  and  _689
REMARK  280  A    between atoms: _689  and  _690
REMARK  281  A    between atoms: _693  and  _695
REMARK  282  A    between atoms: _695  and  _696
REMARK  283  A    between atoms: _695  and  _698
REMARK  284  A    between atoms: _701  and  _703
REMARK  285  A    between atoms: _703  and  _704
REMARK  286  A    between atoms: _706  and  _708
REMARK  287  A    between atoms: _708  and  _709
REMARK  288  A    between atoms: _712  and  _714
REMARK  289  A    between atoms: _714  and  _715
REMARK  290  A    between atoms: _714  and  _717
REMARK  291  A    between atoms: _720  and  _722
REMARK  292  A    between atoms: _722  and  _723
REMARK  293  A    between atoms: _722  and  _725
REMARK  294  A    between atoms: _725  and  _726
REMARK  295  A    between atoms: _726  and  _727
REMARK  296  A    between atoms: _729  and  _731
REMARK  297  A    between atoms: _731  and  _732
REMARK  298  A    between atoms: _731  and  _734
REMARK  299  A    between atoms: _734  and  _735
REMARK  300  A    between atoms: _735  and  _736
REMARK                            x       y       z     vdW  Elec       q    Type
REMARK                         _______ _______ _______ _____ _____    ______ ____
ROOT
ATOM      1  C   GLY A   2      43.571   8.152  14.087  0.00  0.00    +0.243 C 
ATOM      2  O   GLY A   2      42.936   7.272  14.676  0.00  0.00    -0.273 OA
ATOM      3  N   THR A   3      43.065   8.886  13.102  0.00  0.00    -0.295 N 
ATOM      4  H   THR A   3      43.651   9.632  12.677  0.00  0.00    +0.150 HD
ENDROOT
BRANCH   1   5
ATOM      5  CA  GLY A   2      45.006   8.471  14.469  0.00  0.00    +0.176 C 
BRANCH   5   7
ATOM      6  C   THR A   1      46.196   6.509  15.263  0.00  0.00    +0.241 C 
ATOM      7  N   GLY A   2      45.529   7.632  15.530  0.00  0.00    -0.295 N 
ATOM      8  H   GLY A   2      45.381   7.912  16.520  0.00  0.00    +0.150 HD
ATOM      9  O   THR A   1      46.360   6.086  14.119  0.00  0.00    -0.274 OA
BRANCH   6  10
ATOM     10  CA  THR A   1      46.765   5.748  16.461  0.00  0.00    +0.172 C 
BRANCH  10  11
ATOM     11  N   THR A   1      45.921   5.821  17.659  0.00  0.00    -0.236 NA
ATOM     12  H   THR A   1      44.909   5.593  17.579  0.00  0.00    +0.142 HD
ENDBRANCH  10  11
BRANCH  10  13
ATOM     13  CB  THR A   1      47.025   4.296  16.038  0.00  0.00    +0.135 C 
ATOM     14  CG2 THR A   1      47.669   3.510  17.211  0.00  0.00    +0.034 C 
BRANCH  13  15
ATOM     15  OG1 THR A   1      45.781   3.671  15.664  0.00  0.00    -0.383 OA
ATOM     16  HG1 THR A   1      45.378   4.167  14.908  0.00  0.00    +0.210 HD
ENDBRANCH  13  15
ENDBRANCH  10  13
ENDBRANCH   6  10
ENDBRANCH   5   7
ENDBRANCH   1   5
BRANCH   3  17
ATOM     17  CA  THR A   3      41.726   8.678  12.605  0.00  0.00    +0.176 C 
BRANCH  17  18
ATOM     18  C   THR A   3      41.689   7.521  11.623  0.00  0.00    +0.243 C 
ATOM     19  N   VAL A   4      40.651   6.717  11.738  0.00  0.00    -0.298 N 
ATOM     20  H   VAL A   4      39.947   6.884  12.485  0.00  0.00    +0.150 HD
ATOM     21  O   THR A   3      42.598   7.340  10.798  0.00  0.00    -0.273 OA
BRANCH  19  22
ATOM     22  CA  VAL A   4      40.486   5.601  10.828  0.00  0.00    +0.137 C 
BRANCH  22  23
ATOM     23  CB  VAL A   4      40.586   4.253  11.536  0.00  0.00    +0.026 C 
ATOM     24  CG2 VAL A   4      41.952   4.122  12.265  0.00  0.00    +0.002 C 
ATOM     25  CG1 VAL A   4      40.411   3.150  10.517  0.00  0.00    +0.002 C 
ENDBRANCH  22  23
BRANCH  22  26
ATOM     26  C   VAL A   4      39.089   5.721  10.231  0.00  0.00    +0.227 C 
ATOM     27  O   VAL A   4      38.099   5.597  10.937  0.00  0.00    -0.286 OA
ENDBRANCH  22  26
ENDBRANCH  19  22
ENDBRANCH  17  18
BRANCH  17  28
ATOM     28  CB  THR A   3      41.200   9.930  11.891  0.00  0.00    +0.137 C 
ATOM     29  CG2 THR A   3      39.830   9.661  11.273  0.00  0.00    +0.034 C 
BRANCH  28  30
ATOM     30  OG1 THR A   3      41.076  10.988  12.848  0.00  0.00    -0.382 OA
ATOM     31  HG1 THR A   3      41.962  11.176  13.247  0.00  0.00    +0.210 HD
ENDBRANCH  28  30
ENDBRANCH  17  28
ENDBRANCH   3  17
TORSDOF 13
REMARK  Name = ../refined-set-2016/4gid/4gid_pocket.pdb
REMARK  300 active torsions:
REMARK  status: ('A' for Active; 'I' for Inactive)
REMARK    1  A    between atoms: _1  and  _3
REMARK    2  A    between atoms: _3  and  _4
REMARK    3  A    between atoms: _6  and  _8
REMARK    4  A    between atoms: _8  and  _9
REMARK    5  A    between atoms: _8  and  _11
REMARK    6  A    between atoms: _11  and  _12
REMARK    7  A    between atoms: _12  and  _13
REMARK    8  A    between atoms: _13  and  _14
REMARK    9  A    between atoms: _14  and  _15
REMARK   10  A    between atoms: _19  and  _21
REMARK   11  A    between atoms: _21  and  _22
REMARK   12  A    between atoms: _21  and  _24
REMARK   13  A    between atoms: _24  and  _25
REMARK   14  A    between atoms: _27  and  _29
REMARK   15  A    between atoms: _29  and  _30
REMARK   16  A    between atoms: _32  and  _34
REMARK   17  A    between atoms: _34  and  _35
REMARK   18  A    between atoms: _34  and  _37
REMARK   19  A    between atoms: _37  and  _38
REMARK   20  A    between atoms: _38  and  _39
REMARK   21  A    between atoms: _44  and  _46
REMARK   22  A    between atoms: _46  and  _47
REMARK   23  A    between atoms: _49  and  _51
REMARK   24  A    between atoms: _51  and  _52
REMARK   25  A    between atoms: _51  and  _54
REMARK   26  A    between atoms: _54  and  _55
REMARK   27  A    between atoms: _60  and  _61
REMARK   28  A    between atoms: _63  and  _65
REMARK   29  A    between atoms: _65  and  _66
REMARK   30  A    between atoms: _65  and  _68
REMARK   31  A    between atoms: _68  and  _69
REMARK   32  A    between atoms: _74  and  _75
REMARK   33  A    between atoms: _77  and  _79
REMARK   34  A    between atoms: _79  and  _80
REMARK   35  A    between atoms: _79  and  _82
REMARK   36  A    between atoms: _82  and  _83
REMARK   37  A    between atoms: _86  and  _88
REMARK   38  A    between atoms: _88  and  _89
REMARK   39  A    between atoms: _88  and  _91
REMARK   40  A    between atoms: _94  and  _96
REMARK   41  A    between atoms: _96  and  _97
REMARK   42  A    between atoms: _96  and  _99
REMARK   43  A    between atoms: _99  and  _100
REMARK   44  A    between atoms: _103  and  _105
REMARK   45  A    between atoms: _105  and  _106
REMARK   46  A    between atoms: _105  and  _108
REMARK   47  A    between atoms: _108  and  _109
REMARK   48  A    between atoms: _112  and  _114
REMARK   49  A    between atoms: _114  and  _115
REMARK   50  A    between atoms: _117  and  _119
REMARK   51  A    between atoms: _119  and  _120
REMARK   52  A    between atoms: _119  and  _122
REMARK   53  A    between atoms: _122  and  _123
REMARK   54  A    between atoms: _125  and  _127
REMARK   55  A    between atoms: _127  and  _128
REMARK   56  A    between atoms: _127  and  _130
REMARK   57  A    between atoms: _130  and  _131
REMARK   58  A    between atoms: _133  and  _135
REMARK   59  A    between atoms: _135  and  _136
REMARK   60  A    between atoms: _135  and  _138
REMARK   61  A    between atoms: _138  and  _139
REMARK   62  A    between atoms: _144  and  _146
REMARK   63  A    between atoms: _146  and  _147
REMARK   64  A    between atoms: _146  and  _149
REMARK   65  A    between atoms: _149  and  _150
REMARK   66  A    between atoms: _155  and  _156
REMARK   67  A    between atoms: _158  and  _160
REMARK   68  A    between atoms: _160  and  _161
REMARK   69  A    between atoms: _160  and  _163
REMARK   70  A    between atoms: _167  and  _168
REMARK   71  A    between atoms: _173  and  _175
REMARK   72  A    between atoms: _175  and  _176
REMARK   73  A    between atoms: _175  and  _178
REMARK   74  A    between atoms: _178  and  _179
REMARK   75  A    between atoms: _184  and  _185
REMARK   76  A    between atoms: _187  and  _189
REMARK   77  A    between atoms: _189  and  _190
REMARK   78  A    between atoms: _189  and  _192
REMARK   79  A    between atoms: _192  and  _193
REMARK   80  A    between atoms: _196  and  _198
REMARK   81  A    between atoms: _198  and  _199
REMARK   82  A    between atoms: _198  and  _201
REMARK   83  A    between atoms: _201  and  _202
REMARK   84  A    between atoms: _202  and  _203
REMARK   85  A    between atoms: _208  and  _210
REMARK   86  A    between atoms: _210  and  _211
REMARK   87  A    between atoms: _213  and  _215
REMARK   88  A    between atoms: _215  and  _216
REMARK   89  A    between atoms: _215  and  _218
REMARK   90  A    between atoms: _218  and  _219
REMARK   91  A    between atoms: _219  and  _220
REMARK   92  A    between atoms: _220  and  _221
REMARK   93  A    between atoms: _221  and  _222
REMARK   94  A    between atoms: _226  and  _228
REMARK   95  A    between atoms: _228  and  _229
REMARK   96  A    between atoms: _228  and  _231
REMARK   97  A    between atoms: _231  and  _232
REMARK   98  A    between atoms: _242  and  _244
REMARK   99  A    between atoms: _244  and  _245
REMARK  100  A    between atoms: _244  and  _247
REMARK  101  A    between atoms: _247  and  _248
REMARK  102  A    between atoms: _251  and  _253
REMARK  103  A    between atoms: _253  and  _254
REMARK  104  A    between atoms: _253  and  _256
REMARK  105  A    between atoms: _256  and  _257
REMARK  106  A    between atoms: _257  and  _258
REMARK  107  A    between atoms: _258  and  _259
REMARK  108  A    between atoms: _259  and  _260
REMARK  109  A    between atoms: _264  and  _266
REMARK  110  A    between atoms: _266  and  _267
REMARK  111  A    between atoms: _266  and  _269
REMARK  112  A    between atoms: _269  and  _270
REMARK  113  A    between atoms: _276  and  _278
REMARK  114  A    between atoms: _278  and  _279
REMARK  115  A    between atoms: _278  and  _281
REMARK  116  A    between atoms: _281  and  _282
REMARK  117  A    between atoms: _288  and  _290
REMARK  118  A    between atoms: _290  and  _291
REMARK  119  A    between atoms: _290  and  _293
REMARK  120  A    between atoms: _293  and  _294
REMARK  121  A    between atoms: _297  and  _299
REMARK  122  A    between atoms: _299  and  _300
REMARK  123  A    between atoms: _299  and  _302
REMARK  124  A    between atoms: _302  and  _303
REMARK  125  A    between atoms: _305  and  _307
REMARK  126  A    between atoms: _307  and  _308
REMARK  127  A    between atoms: _307  and  _310
REMARK  128  A    between atoms: _310  and  _311
REMARK  129  A    between atoms: _321  and  _323
REMARK  130  A    between atoms: _323  and  _324
REMARK  131  A    between atoms: _326  and  _328
REMARK  132  A    between atoms: _328  and  _329
REMARK  133  A    between atoms: _328  and  _331
REMARK  134  A    between atoms: _331  and  _332
REMARK  135  A    between atoms: _335  and  _337
REMARK  136  A    between atoms: _337  and  _338
REMARK  137  A    between atoms: _337  and  _340
REMARK  138  A    between atoms: _340  and  _341
REMARK  139  A    between atoms: _344  and  _346
REMARK  140  A    between atoms: _346  and  _347
REMARK  141  A    between atoms: _349  and  _351
REMARK  142  A    between atoms: _351  and  _352
REMARK  143  A    between atoms: _355  and  _357
REMARK  144  A    between atoms: _357  and  _358
REMARK  145  A    between atoms: _357  and  _360
REMARK  146  A    between atoms: _360  and  _361
REMARK  147  A    between atoms: _366  and  _367
REMARK  148  A    between atoms: _369  and  _371
REMARK  149  A    between atoms: _371  and  _372
REMARK  150  A    between atoms: _371  and  _374
REMARK  151  A    between atoms: _374  and  _375
REMARK  152  A    between atoms: _375  and  _376
REMARK  153  A    between atoms: _379  and  _381
REMARK  154  A    between atoms: _381  and  _382
REMARK  155  A    between atoms: _381  and  _384
REMARK  156  A    between atoms: _384  and  _385
REMARK  157  A    between atoms: _388  and  _390
REMARK  158  A    between atoms: _390  and  _391
REMARK  159  A    between atoms: _394  and  _396
REMARK  160  A    between atoms: _396  and  _397
REMARK  161  A    between atoms: _396  and  _399
REMARK  162  A    between atoms: _399  and  _400
REMARK  163  A    between atoms: _400  and  _401
REMARK  164  A    between atoms: _401  and  _402
REMARK  165  A    between atoms: _411  and  _413
REMARK  166  A    between atoms: _413  and  _414
REMARK  167  A    between atoms: _413  and  _416
REMARK  168  A    between atoms: _416  and  _417
REMARK  169  A    between atoms: _420  and  _422
REMARK  170  A    between atoms: _422  and  _423
REMARK  171  A    between atoms: _422  and  _425
REMARK  172  A    between atoms: _425  and  _426
REMARK  173  A    between atoms: _436  and  _438
REMARK  174  A    between atoms: _438  and  _439
REMARK  175  A    between atoms: _438  and  _441
REMARK  176  A    between atoms: _441  and  _442
REMARK  177  A    between atoms: _447  and  _448
REMARK  178  A    between atoms: _450  and  _452
REMARK  179  A    between atoms: _452  and  _453
REMARK  180  A    between atoms: _452  and  _455
REMARK  181  A    between atoms: _455  and  _456
REMARK  182  A    between atoms: _461  and  _462
REMARK  183  A    between atoms: _464  and  _466
REMARK  184  A    between atoms: _466  and  _467
REMARK  185  A    between atoms: _466  and  _469
REMARK  186  A    between atoms: _469  and  _470
REMARK  187  A    between atoms: _470  and  _471
REMARK  188  A    between atoms: _471  and  _472
REMARK  189  A    between atoms: _472  and  _473
REMARK  190  A    between atoms: _477  and  _479
REMARK  191  A    between atoms: _479  and  _480
REMARK  192  A    between atoms: _479  and  _482
REMARK  193  A    between atoms: _482  and  _483
REMARK  194  A    between atoms: _486  and  _488
REMARK  195  A    between atoms: _488  and  _489
REMARK  196  A    between atoms: _488  and  _491
REMARK  197  A    between atoms: _494  and  _496
REMARK  198  A    between atoms: _496  and  _497
REMARK  199  A    between atoms: _496  and  _499
REMARK  200  A    between atoms: _499  and  _500
REMARK  201  A    between atoms: _503  and  _505
REMARK  202  A    between atoms: _505  and  _506
REMARK  203  A    between atoms: _505  and  _508
REMARK  204  A    between atoms: _508  and  _509
REMARK  205  A    between atoms: _511  and  _513
REMARK  206  A    between atoms: _513  and  _514
REMARK  207  A    between atoms: _516  and  _518
REMARK  208  A    between atoms: _518  and  _519
REMARK  209  A    between atoms: _518  and  _521
REMARK  210  A    between atoms: _521  and  _522
REMARK  211  A    between atoms: _525  and  _527
REMARK  212  A    between atoms: _527  and  _528
REMARK  213  A    between atoms: _527  and  _530
REMARK  214  A    between atoms: _530  and  _531
REMARK  215  A    between atoms: _534  and  _536
REMARK  216  A    between atoms: _536  and  _537
REMARK  217  A    between atoms: _536  and  _539
REMARK  218  A    between atoms: _539  and  _540
REMARK  219  A    between atoms: _545  and  _547
REMARK  220  A    between atoms: _547  and  _548
REMARK  221  A    between atoms: _547  and  _550
REMARK  222  A    between atoms: _550  and  _551
REMARK  223  A    between atoms: _554  and  _556
REMARK  224  A    between atoms: _556  and  _557
REMARK  225  A    between atoms: _556  and  _559
REMARK  226  A    between atoms: _559  and  _560
REMARK  227  A    between atoms: _560  and  _561
REMARK  228  A    between atoms: _561  and  _562
REMARK  229  A    between atoms: _571  and  _573
REMARK  230  A    between atoms: _573  and  _574
REMARK  231  A    between atoms: _573  and  _576
REMARK  232  A    between atoms: _576  and  _577
REMARK  233  A    between atoms: _580  and  _582
REMARK  234  A    between atoms: _582  and  _583
REMARK  235  A    between atoms: _585  and  _587
REMARK  236  A    between atoms: _587  and  _588
REMARK  237  A    between atoms: _587  and  _590
REMARK  238  A    between atoms: _590  and  _591
REMARK  239  A    between atoms: _591  and  _592
REMARK  240  A    between atoms: _592  and  _593
REMARK  241  A    between atoms: _602  and  _604
REMARK  242  A    between atoms: _604  and  _605
REMARK  243  A    between atoms: _604  and  _607
REMARK  244  A    between atoms: _607  and  _608
REMARK  245  A    between atoms: _608  and  _609
REMARK  246  A    between atoms: _609  and  _610
REMARK  247  A    between atoms: _610  and  _611
REMARK  248  A    between atoms: _615  and  _617
REMARK  249  A    between atoms: _617  and  _618
REMARK  250  A    between atoms: _617  and  _620
REMARK  251  A    between atoms: _620  and  _621
REMARK  252  A    between atoms: _627  and  _629
REMARK  253  A    between atoms: _629  and  _630
REMARK  254  A    between atoms: _633  and  _635
REMARK  255  A    between atoms: _635  and  _636
REMARK  256  A    between atoms: _635  and  _638
REMARK  257  A    between atoms: _638  and  _639
REMARK  258  A    between atoms: _642  and  _644
REMARK  259  A    between atoms: _644  and  _645
REMARK  260  A    between atoms: _644  and  _647
REMARK  261  A    between atoms: _647  and  _648
REMARK  262  A    between atoms: _650  and  _652
REMARK  263  A    between atoms: _652  and  _653
REMARK  264  A    between atoms: _652  and  _655
REMARK  265  A    between atoms: _655  and  _656
REMARK  266  A    between atoms: _656  and  _657
REMARK  267  A    between atoms: _662  and  _664
REMARK  268  A    between atoms: _664  and  _665
REMARK  269  A    between atoms: _664  and  _667
REMARK  270  A    between atoms: _667  and  _668
REMARK  271  A    between atoms: _670  and  _672
REMARK  272  A    between atoms: _672  and  _673
REMARK  273  A    between atoms: _672  and  _675
REMARK  274  A    between atoms: _675  and  _676
REMARK  275  A    between atoms: _679  and  _681
REMARK  276  A    between atoms: _681  and  _682
REMARK  277  A    between atoms: _684  and  _686
REMARK  278  A    between atoms: _686  and  _687
REMARK  279  A    between atoms: _686  and  _689
REMARK  280  A    between atoms: _689  and  _690
REMARK  281  A    between atoms: _693  and  _695
REMARK  282  A    between atoms: _695  and  _696
REMARK  283  A    between atoms: _695  and  _698
REMARK  284  A    between atoms: _701  and  _703
REMARK  285  A    between atoms: _703  and  _704
REMARK  286  A    between atoms: _706  and  _708
REMARK  287  A    between atoms: _708  and  _709
REMARK  288  A    between atoms: _712  and  _714
REMARK  289  A    between atoms: _714  and  _715
REMARK  290  A    between atoms: _714  and  _717
REMARK  291  A    between atoms: _720  and  _722
REMARK  292  A    between atoms: _722  and  _723
REMARK  293  A    between atoms: _722  and  _725
REMARK  294  A    between atoms: _725  and  _726
REMARK  295  A    between atoms: _726  and  _727
REMARK  296  A    between atoms: _729  and  _731
REMARK  297  A    between atoms: _731  and  _732
REMARK  298  A    between atoms: _731  and  _734
REMARK  299  A    between atoms: _734  and  _735
REMARK  300  A    between atoms: _735  and  _736
REMARK                            x       y       z     vdW  Elec       q    Type
REMARK                         _______ _______ _______ _____ _____    ______ ____
ROOT
ATOM      1  C   ALA A   2      32.047   2.002   7.202  0.00  0.00    +0.241 C 
ATOM      2  N   VAL A   3      32.052   2.613   8.381  0.00  0.00    -0.298 N 
ATOM      3  H   VAL A   3      32.779   2.360   9.081  0.00  0.00    +0.150 HD
ATOM      4  O   ALA A   2      31.190   2.212   6.349  0.00  0.00    -0.273 OA
ENDROOT
BRANCH   1   5
ATOM      5  CA  ALA A   2      33.155   0.978   6.940  0.00  0.00    +0.149 C 
ATOM      6  CB  ALA A   2      32.681  -0.437   7.336  0.00  0.00    +0.031 C 
BRANCH   5   8
ATOM      7  C   GLY A   1      35.070   2.447   7.486  0.00  0.00    +0.240 C 
ATOM      8  N   ALA A   2      34.408   1.294   7.618  0.00  0.00    -0.297 N 
ATOM      9  H   ALA A   2      34.814   0.572   8.247  0.00  0.00    +0.150 HD
ATOM     10  O   GLY A   1      34.683   3.406   6.797  0.00  0.00    -0.274 OA
BRANCH   7  11
ATOM     11  CA  GLY A   1      36.363   2.545   8.261  0.00  0.00    +0.169 C 
BRANCH  11  12
ATOM     12  N   GLY A   1      36.725   3.912   8.608  0.00  0.00    -0.236 NA
ATOM     13  H   GLY A   1      36.437   4.302   9.528  0.00  0.00    +0.142 HD
ENDBRANCH  11  12
ENDBRANCH   7  11
ENDBRANCH   5   8
ENDBRANCH   1   5
BRANCH   2  14
ATOM     14  CA  VAL A   3      31.065   3.629   8.718  0.00  0.00    +0.137 C 
BRANCH  14  15
ATOM     15  CB  VAL A   3      31.282   4.140  10.147  0.00  0.00    +0.026 C 
ATOM     16  CG2 VAL A   3      30.911   3.016  11.137  0.00  0.00    +0.002 C 
ATOM     17  CG1 VAL A   3      30.425   5.387  10.416  0.00  0.00    +0.002 C 
ENDBRANCH  14  15
BRANCH  14  18
ATOM     18  C   VAL A   3      31.127   4.797   7.734  0.00  0.00    +0.227 C 
ATOM     19  O   VAL A   3      30.111   5.374   7.385  0.00  0.00    -0.286 OA
ENDBRANCH  14  18
ENDBRANCH   2  14
TORSDOF 7
REMARK  Name = ../refined-set-2016/4gid/4gid_pocket.pdb
REMARK  300 active torsions:
REMARK  status: ('A' for Active; 'I' for Inactive)
REMARK    1  A    between atoms: _1  and  _3
REMARK    2  A    between atoms: _3  and  _4
REMARK    3  A    between atoms: _6  and  _8
REMARK    4  A    between atoms: _8  and  _9
REMARK    5  A    between atoms: _8  and  _11
REMARK    6  A    between atoms: _11  and  _12
REMARK    7  A    between atoms: _12  and  _13
REMARK    8  A    between atoms: _13  and  _14
REMARK    9  A    between atoms: _14  and  _15
REMARK   10  A    between atoms: _19  and  _21
REMARK   11  A    between atoms: _21  and  _22
REMARK   12  A    between atoms: _21  and  _24
REMARK   13  A    between atoms: _24  and  _25
REMARK   14  A    between atoms: _27  and  _29
REMARK   15  A    between atoms: _29  and  _30
REMARK   16  A    between atoms: _32  and  _34
REMARK   17  A    between atoms: _34  and  _35
REMARK   18  A    between atoms: _34  and  _37
REMARK   19  A    between atoms: _37  and  _38
REMARK   20  A    between atoms: _38  and  _39
REMARK   21  A    between atoms: _44  and  _46
REMARK   22  A    between atoms: _46  and  _47
REMARK   23  A    between atoms: _49  and  _51
REMARK   24  A    between atoms: _51  and  _52
REMARK   25  A    between atoms: _51  and  _54
REMARK   26  A    between atoms: _54  and  _55
REMARK   27  A    between atoms: _60  and  _61
REMARK   28  A    between atoms: _63  and  _65
REMARK   29  A    between atoms: _65  and  _66
REMARK   30  A    between atoms: _65  and  _68
REMARK   31  A    between atoms: _68  and  _69
REMARK   32  A    between atoms: _74  and  _75
REMARK   33  A    between atoms: _77  and  _79
REMARK   34  A    between atoms: _79  and  _80
REMARK   35  A    between atoms: _79  and  _82
REMARK   36  A    between atoms: _82  and  _83
REMARK   37  A    between atoms: _86  and  _88
REMARK   38  A    between atoms: _88  and  _89
REMARK   39  A    between atoms: _88  and  _91
REMARK   40  A    between atoms: _94  and  _96
REMARK   41  A    between atoms: _96  and  _97
REMARK   42  A    between atoms: _96  and  _99
REMARK   43  A    between atoms: _99  and  _100
REMARK   44  A    between atoms: _103  and  _105
REMARK   45  A    between atoms: _105  and  _106
REMARK   46  A    between atoms: _105  and  _108
REMARK   47  A    between atoms: _108  and  _109
REMARK   48  A    between atoms: _112  and  _114
REMARK   49  A    between atoms: _114  and  _115
REMARK   50  A    between atoms: _117  and  _119
REMARK   51  A    between atoms: _119  and  _120
REMARK   52  A    between atoms: _119  and  _122
REMARK   53  A    between atoms: _122  and  _123
REMARK   54  A    between atoms: _125  and  _127
REMARK   55  A    between atoms: _127  and  _128
REMARK   56  A    between atoms: _127  and  _130
REMARK   57  A    between atoms: _130  and  _131
REMARK   58  A    between atoms: _133  and  _135
REMARK   59  A    between atoms: _135  and  _136
REMARK   60  A    between atoms: _135  and  _138
REMARK   61  A    between atoms: _138  and  _139
REMARK   62  A    between atoms: _144  and  _146
REMARK   63  A    between atoms: _146  and  _147
REMARK   64  A    between atoms: _146  and  _149
REMARK   65  A    between atoms: _149  and  _150
REMARK   66  A    between atoms: _155  and  _156
REMARK   67  A    between atoms: _158  and  _160
REMARK   68  A    between atoms: _160  and  _161
REMARK   69  A    between atoms: _160  and  _163
REMARK   70  A    between atoms: _167  and  _168
REMARK   71  A    between atoms: _173  and  _175
REMARK   72  A    between atoms: _175  and  _176
REMARK   73  A    between atoms: _175  and  _178
REMARK   74  A    between atoms: _178  and  _179
REMARK   75  A    between atoms: _184  and  _185
REMARK   76  A    between atoms: _187  and  _189
REMARK   77  A    between atoms: _189  and  _190
REMARK   78  A    between atoms: _189  and  _192
REMARK   79  A    between atoms: _192  and  _193
REMARK   80  A    between atoms: _196  and  _198
REMARK   81  A    between atoms: _198  and  _199
REMARK   82  A    between atoms: _198  and  _201
REMARK   83  A    between atoms: _201  and  _202
REMARK   84  A    between atoms: _202  and  _203
REMARK   85  A    between atoms: _208  and  _210
REMARK   86  A    between atoms: _210  and  _211
REMARK   87  A    between atoms: _213  and  _215
REMARK   88  A    between atoms: _215  and  _216
REMARK   89  A    between atoms: _215  and  _218
REMARK   90  A    between atoms: _218  and  _219
REMARK   91  A    between atoms: _219  and  _220
REMARK   92  A    between atoms: _220  and  _221
REMARK   93  A    between atoms: _221  and  _222
REMARK   94  A    between atoms: _226  and  _228
REMARK   95  A    between atoms: _228  and  _229
REMARK   96  A    between atoms: _228  and  _231
REMARK   97  A    between atoms: _231  and  _232
REMARK   98  A    between atoms: _242  and  _244
REMARK   99  A    between atoms: _244  and  _245
REMARK  100  A    between atoms: _244  and  _247
REMARK  101  A    between atoms: _247  and  _248
REMARK  102  A    between atoms: _251  and  _253
REMARK  103  A    between atoms: _253  and  _254
REMARK  104  A    between atoms: _253  and  _256
REMARK  105  A    between atoms: _256  and  _257
REMARK  106  A    between atoms: _257  and  _258
REMARK  107  A    between atoms: _258  and  _259
REMARK  108  A    between atoms: _259  and  _260
REMARK  109  A    between atoms: _264  and  _266
REMARK  110  A    between atoms: _266  and  _267
REMARK  111  A    between atoms: _266  and  _269
REMARK  112  A    between atoms: _269  and  _270
REMARK  113  A    between atoms: _276  and  _278
REMARK  114  A    between atoms: _278  and  _279
REMARK  115  A    between atoms: _278  and  _281
REMARK  116  A    between atoms: _281  and  _282
REMARK  117  A    between atoms: _288  and  _290
REMARK  118  A    between atoms: _290  and  _291
REMARK  119  A    between atoms: _290  and  _293
REMARK  120  A    between atoms: _293  and  _294
REMARK  121  A    between atoms: _297  and  _299
REMARK  122  A    between atoms: _299  and  _300
REMARK  123  A    between atoms: _299  and  _302
REMARK  124  A    between atoms: _302  and  _303
REMARK  125  A    between atoms: _305  and  _307
REMARK  126  A    between atoms: _307  and  _308
REMARK  127  A    between atoms: _307  and  _310
REMARK  128  A    between atoms: _310  and  _311
REMARK  129  A    between atoms: _321  and  _323
REMARK  130  A    between atoms: _323  and  _324
REMARK  131  A    between atoms: _326  and  _328
REMARK  132  A    between atoms: _328  and  _329
REMARK  133  A    between atoms: _328  and  _331
REMARK  134  A    between atoms: _331  and  _332
REMARK  135  A    between atoms: _335  and  _337
REMARK  136  A    between atoms: _337  and  _338
REMARK  137  A    between atoms: _337  and  _340
REMARK  138  A    between atoms: _340  and  _341
REMARK  139  A    between atoms: _344  and  _346
REMARK  140  A    between atoms: _346  and  _347
REMARK  141  A    between atoms: _349  and  _351
REMARK  142  A    between atoms: _351  and  _352
REMARK  143  A    between atoms: _355  and  _357
REMARK  144  A    between atoms: _357  and  _358
REMARK  145  A    between atoms: _357  and  _360
REMARK  146  A    between atoms: _360  and  _361
REMARK  147  A    between atoms: _366  and  _367
REMARK  148  A    between atoms: _369  and  _371
REMARK  149  A    between atoms: _371  and  _372
REMARK  150  A    between atoms: _371  and  _374
REMARK  151  A    between atoms: _374  and  _375
REMARK  152  A    between atoms: _375  and  _376
REMARK  153  A    between atoms: _379  and  _381
REMARK  154  A    between atoms: _381  and  _382
REMARK  155  A    between atoms: _381  and  _384
REMARK  156  A    between atoms: _384  and  _385
REMARK  157  A    between atoms: _388  and  _390
REMARK  158  A    between atoms: _390  and  _391
REMARK  159  A    between atoms: _394  and  _396
REMARK  160  A    between atoms: _396  and  _397
REMARK  161  A    between atoms: _396  and  _399
REMARK  162  A    between atoms: _399  and  _400
REMARK  163  A    between atoms: _400  and  _401
REMARK  164  A    between atoms: _401  and  _402
REMARK  165  A    between atoms: _411  and  _413
REMARK  166  A    between atoms: _413  and  _414
REMARK  167  A    between atoms: _413  and  _416
REMARK  168  A    between atoms: _416  and  _417
REMARK  169  A    between atoms: _420  and  _422
REMARK  170  A    between atoms: _422  and  _423
REMARK  171  A    between atoms: _422  and  _425
REMARK  172  A    between atoms: _425  and  _426
REMARK  173  A    between atoms: _436  and  _438
REMARK  174  A    between atoms: _438  and  _439
REMARK  175  A    between atoms: _438  and  _441
REMARK  176  A    between atoms: _441  and  _442
REMARK  177  A    between atoms: _447  and  _448
REMARK  178  A    between atoms: _450  and  _452
REMARK  179  A    between atoms: _452  and  _453
REMARK  180  A    between atoms: _452  and  _455
REMARK  181  A    between atoms: _455  and  _456
REMARK  182  A    between atoms: _461  and  _462
REMARK  183  A    between atoms: _464  and  _466
REMARK  184  A    between atoms: _466  and  _467
REMARK  185  A    between atoms: _466  and  _469
REMARK  186  A    between atoms: _469  and  _470
REMARK  187  A    between atoms: _470  and  _471
REMARK  188  A    between atoms: _471  and  _472
REMARK  189  A    between atoms: _472  and  _473
REMARK  190  A    between atoms: _477  and  _479
REMARK  191  A    between atoms: _479  and  _480
REMARK  192  A    between atoms: _479  and  _482
REMARK  193  A    between atoms: _482  and  _483
REMARK  194  A    between atoms: _486  and  _488
REMARK  195  A    between atoms: _488  and  _489
REMARK  196  A    between atoms: _488  and  _491
REMARK  197  A    between atoms: _494  and  _496
REMARK  198  A    between atoms: _496  and  _497
REMARK  199  A    between atoms: _496  and  _499
REMARK  200  A    between atoms: _499  and  _500
REMARK  201  A    between atoms: _503  and  _505
REMARK  202  A    between atoms: _505  and  _506
REMARK  203  A    between atoms: _505  and  _508
REMARK  204  A    between atoms: _508  and  _509
REMARK  205  A    between atoms: _511  and  _513
REMARK  206  A    between atoms: _513  and  _514
REMARK  207  A    between atoms: _516  and  _518
REMARK  208  A    between atoms: _518  and  _519
REMARK  209  A    between atoms: _518  and  _521
REMARK  210  A    between atoms: _521  and  _522
REMARK  211  A    between atoms: _525  and  _527
REMARK  212  A    between atoms: _527  and  _528
REMARK  213  A    between atoms: _527  and  _530
REMARK  214  A    between atoms: _530  and  _531
REMARK  215  A    between atoms: _534  and  _536
REMARK  216  A    between atoms: _536  and  _537
REMARK  217  A    between atoms: _536  and  _539
REMARK  218  A    between atoms: _539  and  _540
REMARK  219  A    between atoms: _545  and  _547
REMARK  220  A    between atoms: _547  and  _548
REMARK  221  A    between atoms: _547  and  _550
REMARK  222  A    between atoms: _550  and  _551
REMARK  223  A    between atoms: _554  and  _556
REMARK  224  A    between atoms: _556  and  _557
REMARK  225  A    between atoms: _556  and  _559
REMARK  226  A    between atoms: _559  and  _560
REMARK  227  A    between atoms: _560  and  _561
REMARK  228  A    between atoms: _561  and  _562
REMARK  229  A    between atoms: _571  and  _573
REMARK  230  A    between atoms: _573  and  _574
REMARK  231  A    between atoms: _573  and  _576
REMARK  232  A    between atoms: _576  and  _577
REMARK  233  A    between atoms: _580  and  _582
REMARK  234  A    between atoms: _582  and  _583
REMARK  235  A    between atoms: _585  and  _587
REMARK  236  A    between atoms: _587  and  _588
REMARK  237  A    between atoms: _587  and  _590
REMARK  238  A    between atoms: _590  and  _591
REMARK  239  A    between atoms: _591  and  _592
REMARK  240  A    between atoms: _592  and  _593
REMARK  241  A    between atoms: _602  and  _604
REMARK  242  A    between atoms: _604  and  _605
REMARK  243  A    between atoms: _604  and  _607
REMARK  244  A    between atoms: _607  and  _608
REMARK  245  A    between atoms: _608  and  _609
REMARK  246  A    between atoms: _609  and  _610
REMARK  247  A    between atoms: _610  and  _611
REMARK  248  A    between atoms: _615  and  _617
REMARK  249  A    between atoms: _617  and  _618
REMARK  250  A    between atoms: _617  and  _620
REMARK  251  A    between atoms: _620  and  _621
REMARK  252  A    between atoms: _627  and  _629
REMARK  253  A    between atoms: _629  and  _630
REMARK  254  A    between atoms: _633  and  _635
REMARK  255  A    between atoms: _635  and  _636
REMARK  256  A    between atoms: _635  and  _638
REMARK  257  A    between atoms: _638  and  _639
REMARK  258  A    between atoms: _642  and  _644
REMARK  259  A    between atoms: _644  and  _645
REMARK  260  A    between atoms: _644  and  _647
REMARK  261  A    between atoms: _647  and  _648
REMARK  262  A    between atoms: _650  and  _652
REMARK  263  A    between atoms: _652  and  _653
REMARK  264  A    between atoms: _652  and  _655
REMARK  265  A    between atoms: _655  and  _656
REMARK  266  A    between atoms: _656  and  _657
REMARK  267  A    between atoms: _662  and  _664
REMARK  268  A    between atoms: _664  and  _665
REMARK  269  A    between atoms: _664  and  _667
REMARK  270  A    between atoms: _667  and  _668
REMARK  271  A    between atoms: _670  and  _672
REMARK  272  A    between atoms: _672  and  _673
REMARK  273  A    between atoms: _672  and  _675
REMARK  274  A    between atoms: _675  and  _676
REMARK  275  A    between atoms: _679  and  _681
REMARK  276  A    between atoms: _681  and  _682
REMARK  277  A    between atoms: _684  and  _686
REMARK  278  A    between atoms: _686  and  _687
REMARK  279  A    between atoms: _686  and  _689
REMARK  280  A    between atoms: _689  and  _690
REMARK  281  A    between atoms: _693  and  _695
REMARK  282  A    between atoms: _695  and  _696
REMARK  283  A    between atoms: _695  and  _698
REMARK  284  A    between atoms: _701  and  _703
REMARK  285  A    between atoms: _703  and  _704
REMARK  286  A    between atoms: _706  and  _708
REMARK  287  A    between atoms: _708  and  _709
REMARK  288  A    between atoms: _712  and  _714
REMARK  289  A    between atoms: _714  and  _715
REMARK  290  A    between atoms: _714  and  _717
REMARK  291  A    between atoms: _720  and  _722
REMARK  292  A    between atoms: _722  and  _723
REMARK  293  A    between atoms: _722  and  _725
REMARK  294  A    between atoms: _725  and  _726
REMARK  295  A    between atoms: _726  and  _727
REMARK  296  A    between atoms: _729  and  _731
REMARK  297  A    between atoms: _731  and  _732
REMARK  298  A    between atoms: _731  and  _734
REMARK  299  A    between atoms: _734  and  _735
REMARK  300  A    between atoms: _735  and  _736
REMARK                            x       y       z     vdW  Elec       q    Type
REMARK                         _______ _______ _______ _____ _____    ______ ____
ROOT
ATOM      1  C   MET A   1      31.466   3.484   2.853  0.00  0.00    +0.238 C 
ATOM      2  N   GLU A   2      30.591   3.071   3.775  0.00  0.00    -0.298 N 
ATOM      3  H   GLU A   2      30.874   3.064   4.776  0.00  0.00    +0.150 HD
ATOM      4  O   MET A   1      31.218   3.480   1.641  0.00  0.00    -0.274 OA
ENDROOT
BRANCH   1   5
ATOM      5  CA  MET A   1      32.838   3.958   3.336  0.00  0.00    +0.146 C 
BRANCH   5   6
ATOM      6  N   MET A   1      32.919   4.521   4.667  0.00  0.00    -0.238 NA
ATOM      7  H   MET A   1      33.472   4.043   5.407  0.00  0.00    +0.142 HD
ENDBRANCH   5   6
BRANCH   5   8
ATOM      8  CB  MET A   1      33.890   2.848   3.192  0.00  0.00    +0.038 C 
BRANCH   8   9
ATOM      9  CG  MET A   1      35.286   3.406   3.434  0.00  0.00    +0.060 C 
BRANCH   9  10
ATOM     10  SD  MET A   1      36.591   2.328   2.957  0.00  0.00    -0.139 S 
ATOM     11  CE  MET A   1      36.399   2.408   1.119  0.00  0.00    +0.069 C 
ENDBRANCH   9  10
ENDBRANCH   8   9
ENDBRANCH   5   8
ENDBRANCH   1   5
BRANCH   2  12
ATOM     12  CA  GLU A   2      29.248   2.630   3.413  0.00  0.00    +0.137 C 
BRANCH  12  13
ATOM     13  C   GLU A   2      28.401   3.788   2.883  0.00  0.00    +0.227 C 
ATOM     14  O   GLU A   2      27.340   3.566   2.298  0.00  0.00    -0.286 OA
ENDBRANCH  12  13
BRANCH  12  15
ATOM     15  CB  GLU A   2      28.541   1.996   4.615  0.00  0.00    +0.039 C 
BRANCH  15  16
ATOM     16  CG  GLU A   2      29.148   0.621   4.992  0.00  0.00    +0.116 C 
BRANCH  16  17
ATOM     17  CD  GLU A   2      28.463  -0.060   6.155  0.00  0.00    +0.365 C 
ATOM     18  OE2 GLU A   2      27.477   0.484   6.697  0.00  0.00    -0.246 OA
ATOM     19  OE1 GLU A   2      28.920  -1.160   6.535  0.00  0.00    -0.246 OA
ENDBRANCH  16  17
ENDBRANCH  15  16
ENDBRANCH  12  15
ENDBRANCH   2  12
TORSDOF 10
REMARK  Name = ../refined-set-2016/4gid/4gid_pocket.pdb
REMARK  300 active torsions:
REMARK  status: ('A' for Active; 'I' for Inactive)
REMARK    1  A    between atoms: _1  and  _3
REMARK    2  A    between atoms: _3  and  _4
REMARK    3  A    between atoms: _6  and  _8
REMARK    4  A    between atoms: _8  and  _9
REMARK    5  A    between atoms: _8  and  _11
REMARK    6  A    between atoms: _11  and  _12
REMARK    7  A    between atoms: _12  and  _13
REMARK    8  A    between atoms: _13  and  _14
REMARK    9  A    between atoms: _14  and  _15
REMARK   10  A    between atoms: _19  and  _21
REMARK   11  A    between atoms: _21  and  _22
REMARK   12  A    between atoms: _21  and  _24
REMARK   13  A    between atoms: _24  and  _25
REMARK   14  A    between atoms: _27  and  _29
REMARK   15  A    between atoms: _29  and  _30
REMARK   16  A    between atoms: _32  and  _34
REMARK   17  A    between atoms: _34  and  _35
REMARK   18  A    between atoms: _34  and  _37
REMARK   19  A    between atoms: _37  and  _38
REMARK   20  A    between atoms: _38  and  _39
REMARK   21  A    between atoms: _44  and  _46
REMARK   22  A    between atoms: _46  and  _47
REMARK   23  A    between atoms: _49  and  _51
REMARK   24  A    between atoms: _51  and  _52
REMARK   25  A    between atoms: _51  and  _54
REMARK   26  A    between atoms: _54  and  _55
REMARK   27  A    between atoms: _60  and  _61
REMARK   28  A    between atoms: _63  and  _65
REMARK   29  A    between atoms: _65  and  _66
REMARK   30  A    between atoms: _65  and  _68
REMARK   31  A    between atoms: _68  and  _69
REMARK   32  A    between atoms: _74  and  _75
REMARK   33  A    between atoms: _77  and  _79
REMARK   34  A    between atoms: _79  and  _80
REMARK   35  A    between atoms: _79  and  _82
REMARK   36  A    between atoms: _82  and  _83
REMARK   37  A    between atoms: _86  and  _88
REMARK   38  A    between atoms: _88  and  _89
REMARK   39  A    between atoms: _88  and  _91
REMARK   40  A    between atoms: _94  and  _96
REMARK   41  A    between atoms: _96  and  _97
REMARK   42  A    between atoms: _96  and  _99
REMARK   43  A    between atoms: _99  and  _100
REMARK   44  A    between atoms: _103  and  _105
REMARK   45  A    between atoms: _105  and  _106
REMARK   46  A    between atoms: _105  and  _108
REMARK   47  A    between atoms: _108  and  _109
REMARK   48  A    between atoms: _112  and  _114
REMARK   49  A    between atoms: _114  and  _115
REMARK   50  A    between atoms: _117  and  _119
REMARK   51  A    between atoms: _119  and  _120
REMARK   52  A    between atoms: _119  and  _122
REMARK   53  A    between atoms: _122  and  _123
REMARK   54  A    between atoms: _125  and  _127
REMARK   55  A    between atoms: _127  and  _128
REMARK   56  A    between atoms: _127  and  _130
REMARK   57  A    between atoms: _130  and  _131
REMARK   58  A    between atoms: _133  and  _135
REMARK   59  A    between atoms: _135  and  _136
REMARK   60  A    between atoms: _135  and  _138
REMARK   61  A    between atoms: _138  and  _139
REMARK   62  A    between atoms: _144  and  _146
REMARK   63  A    between atoms: _146  and  _147
REMARK   64  A    between atoms: _146  and  _149
REMARK   65  A    between atoms: _149  and  _150
REMARK   66  A    between atoms: _155  and  _156
REMARK   67  A    between atoms: _158  and  _160
REMARK   68  A    between atoms: _160  and  _161
REMARK   69  A    between atoms: _160  and  _163
REMARK   70  A    between atoms: _167  and  _168
REMARK   71  A    between atoms: _173  and  _175
REMARK   72  A    between atoms: _175  and  _176
REMARK   73  A    between atoms: _175  and  _178
REMARK   74  A    between atoms: _178  and  _179
REMARK   75  A    between atoms: _184  and  _185
REMARK   76  A    between atoms: _187  and  _189
REMARK   77  A    between atoms: _189  and  _190
REMARK   78  A    between atoms: _189  and  _192
REMARK   79  A    between atoms: _192  and  _193
REMARK   80  A    between atoms: _196  and  _198
REMARK   81  A    between atoms: _198  and  _199
REMARK   82  A    between atoms: _198  and  _201
REMARK   83  A    between atoms: _201  and  _202
REMARK   84  A    between atoms: _202  and  _203
REMARK   85  A    between atoms: _208  and  _210
REMARK   86  A    between atoms: _210  and  _211
REMARK   87  A    between atoms: _213  and  _215
REMARK   88  A    between atoms: _215  and  _216
REMARK   89  A    between atoms: _215  and  _218
REMARK   90  A    between atoms: _218  and  _219
REMARK   91  A    between atoms: _219  and  _220
REMARK   92  A    between atoms: _220  and  _221
REMARK   93  A    between atoms: _221  and  _222
REMARK   94  A    between atoms: _226  and  _228
REMARK   95  A    between atoms: _228  and  _229
REMARK   96  A    between atoms: _228  and  _231
REMARK   97  A    between atoms: _231  and  _232
REMARK   98  A    between atoms: _242  and  _244
REMARK   99  A    between atoms: _244  and  _245
REMARK  100  A    between atoms: _244  and  _247
REMARK  101  A    between atoms: _247  and  _248
REMARK  102  A    between atoms: _251  and  _253
REMARK  103  A    between atoms: _253  and  _254
REMARK  104  A    between atoms: _253  and  _256
REMARK  105  A    between atoms: _256  and  _257
REMARK  106  A    between atoms: _257  and  _258
REMARK  107  A    between atoms: _258  and  _259
REMARK  108  A    between atoms: _259  and  _260
REMARK  109  A    between atoms: _264  and  _266
REMARK  110  A    between atoms: _266  and  _267
REMARK  111  A    between atoms: _266  and  _269
REMARK  112  A    between atoms: _269  and  _270
REMARK  113  A    between atoms: _276  and  _278
REMARK  114  A    between atoms: _278  and  _279
REMARK  115  A    between atoms: _278  and  _281
REMARK  116  A    between atoms: _281  and  _282
REMARK  117  A    between atoms: _288  and  _290
REMARK  118  A    between atoms: _290  and  _291
REMARK  119  A    between atoms: _290  and  _293
REMARK  120  A    between atoms: _293  and  _294
REMARK  121  A    between atoms: _297  and  _299
REMARK  122  A    between atoms: _299  and  _300
REMARK  123  A    between atoms: _299  and  _302
REMARK  124  A    between atoms: _302  and  _303
REMARK  125  A    between atoms: _305  and  _307
REMARK  126  A    between atoms: _307  and  _308
REMARK  127  A    between atoms: _307  and  _310
REMARK  128  A    between atoms: _310  and  _311
REMARK  129  A    between atoms: _321  and  _323
REMARK  130  A    between atoms: _323  and  _324
REMARK  131  A    between atoms: _326  and  _328
REMARK  132  A    between atoms: _328  and  _329
REMARK  133  A    between atoms: _328  and  _331
REMARK  134  A    between atoms: _331  and  _332
REMARK  135  A    between atoms: _335  and  _337
REMARK  136  A    between atoms: _337  and  _338
REMARK  137  A    between atoms: _337  and  _340
REMARK  138  A    between atoms: _340  and  _341
REMARK  139  A    between atoms: _344  and  _346
REMARK  140  A    between atoms: _346  and  _347
REMARK  141  A    between atoms: _349  and  _351
REMARK  142  A    between atoms: _351  and  _352
REMARK  143  A    between atoms: _355  and  _357
REMARK  144  A    between atoms: _357  and  _358
REMARK  145  A    between atoms: _357  and  _360
REMARK  146  A    between atoms: _360  and  _361
REMARK  147  A    between atoms: _366  and  _367
REMARK  148  A    between atoms: _369  and  _371
REMARK  149  A    between atoms: _371  and  _372
REMARK  150  A    between atoms: _371  and  _374
REMARK  151  A    between atoms: _374  and  _375
REMARK  152  A    between atoms: _375  and  _376
REMARK  153  A    between atoms: _379  and  _381
REMARK  154  A    between atoms: _381  and  _382
REMARK  155  A    between atoms: _381  and  _384
REMARK  156  A    between atoms: _384  and  _385
REMARK  157  A    between atoms: _388  and  _390
REMARK  158  A    between atoms: _390  and  _391
REMARK  159  A    between atoms: _394  and  _396
REMARK  160  A    between atoms: _396  and  _397
REMARK  161  A    between atoms: _396  and  _399
REMARK  162  A    between atoms: _399  and  _400
REMARK  163  A    between atoms: _400  and  _401
REMARK  164  A    between atoms: _401  and  _402
REMARK  165  A    between atoms: _411  and  _413
REMARK  166  A    between atoms: _413  and  _414
REMARK  167  A    between atoms: _413  and  _416
REMARK  168  A    between atoms: _416  and  _417
REMARK  169  A    between atoms: _420  and  _422
REMARK  170  A    between atoms: _422  and  _423
REMARK  171  A    between atoms: _422  and  _425
REMARK  172  A    between atoms: _425  and  _426
REMARK  173  A    between atoms: _436  and  _438
REMARK  174  A    between atoms: _438  and  _439
REMARK  175  A    between atoms: _438  and  _441
REMARK  176  A    between atoms: _441  and  _442
REMARK  177  A    between atoms: _447  and  _448
REMARK  178  A    between atoms: _450  and  _452
REMARK  179  A    between atoms: _452  and  _453
REMARK  180  A    between atoms: _452  and  _455
REMARK  181  A    between atoms: _455  and  _456
REMARK  182  A    between atoms: _461  and  _462
REMARK  183  A    between atoms: _464  and  _466
REMARK  184  A    between atoms: _466  and  _467
REMARK  185  A    between atoms: _466  and  _469
REMARK  186  A    between atoms: _469  and  _470
REMARK  187  A    between atoms: _470  and  _471
REMARK  188  A    between atoms: _471  and  _472
REMARK  189  A    between atoms: _472  and  _473
REMARK  190  A    between atoms: _477  and  _479
REMARK  191  A    between atoms: _479  and  _480
REMARK  192  A    between atoms: _479  and  _482
REMARK  193  A    between atoms: _482  and  _483
REMARK  194  A    between atoms: _486  and  _488
REMARK  195  A    between atoms: _488  and  _489
REMARK  196  A    between atoms: _488  and  _491
REMARK  197  A    between atoms: _494  and  _496
REMARK  198  A    between atoms: _496  and  _497
REMARK  199  A    between atoms: _496  and  _499
REMARK  200  A    between atoms: _499  and  _500
REMARK  201  A    between atoms: _503  and  _505
REMARK  202  A    between atoms: _505  and  _506
REMARK  203  A    between atoms: _505  and  _508
REMARK  204  A    between atoms: _508  and  _509
REMARK  205  A    between atoms: _511  and  _513
REMARK  206  A    between atoms: _513  and  _514
REMARK  207  A    between atoms: _516  and  _518
REMARK  208  A    between atoms: _518  and  _519
REMARK  209  A    between atoms: _518  and  _521
REMARK  210  A    between atoms: _521  and  _522
REMARK  211  A    between atoms: _525  and  _527
REMARK  212  A    between atoms: _527  and  _528
REMARK  213  A    between atoms: _527  and  _530
REMARK  214  A    between atoms: _530  and  _531
REMARK  215  A    between atoms: _534  and  _536
REMARK  216  A    between atoms: _536  and  _537
REMARK  217  A    between atoms: _536  and  _539
REMARK  218  A    between atoms: _539  and  _540
REMARK  219  A    between atoms: _545  and  _547
REMARK  220  A    between atoms: _547  and  _548
REMARK  221  A    between atoms: _547  and  _550
REMARK  222  A    between atoms: _550  and  _551
REMARK  223  A    between atoms: _554  and  _556
REMARK  224  A    between atoms: _556  and  _557
REMARK  225  A    between atoms: _556  and  _559
REMARK  226  A    between atoms: _559  and  _560
REMARK  227  A    between atoms: _560  and  _561
REMARK  228  A    between atoms: _561  and  _562
REMARK  229  A    between atoms: _571  and  _573
REMARK  230  A    between atoms: _573  and  _574
REMARK  231  A    between atoms: _573  and  _576
REMARK  232  A    between atoms: _576  and  _577
REMARK  233  A    between atoms: _580  and  _582
REMARK  234  A    between atoms: _582  and  _583
REMARK  235  A    between atoms: _585  and  _587
REMARK  236  A    between atoms: _587  and  _588
REMARK  237  A    between atoms: _587  and  _590
REMARK  238  A    between atoms: _590  and  _591
REMARK  239  A    between atoms: _591  and  _592
REMARK  240  A    between atoms: _592  and  _593
REMARK  241  A    between atoms: _602  and  _604
REMARK  242  A    between atoms: _604  and  _605
REMARK  243  A    between atoms: _604  and  _607
REMARK  244  A    between atoms: _607  and  _608
REMARK  245  A    between atoms: _608  and  _609
REMARK  246  A    between atoms: _609  and  _610
REMARK  247  A    between atoms: _610  and  _611
REMARK  248  A    between atoms: _615  and  _617
REMARK  249  A    between atoms: _617  and  _618
REMARK  250  A    between atoms: _617  and  _620
REMARK  251  A    between atoms: _620  and  _621
REMARK  252  A    between atoms: _627  and  _629
REMARK  253  A    between atoms: _629  and  _630
REMARK  254  A    between atoms: _633  and  _635
REMARK  255  A    between atoms: _635  and  _636
REMARK  256  A    between atoms: _635  and  _638
REMARK  257  A    between atoms: _638  and  _639
REMARK  258  A    between atoms: _642  and  _644
REMARK  259  A    between atoms: _644  and  _645
REMARK  260  A    between atoms: _644  and  _647
REMARK  261  A    between atoms: _647  and  _648
REMARK  262  A    between atoms: _650  and  _652
REMARK  263  A    between atoms: _652  and  _653
REMARK  264  A    between atoms: _652  and  _655
REMARK  265  A    between atoms: _655  and  _656
REMARK  266  A    between atoms: _656  and  _657
REMARK  267  A    between atoms: _662  and  _664
REMARK  268  A    between atoms: _664  and  _665
REMARK  269  A    between atoms: _664  and  _667
REMARK  270  A    between atoms: _667  and  _668
REMARK  271  A    between atoms: _670  and  _672
REMARK  272  A    between atoms: _672  and  _673
REMARK  273  A    between atoms: _672  and  _675
REMARK  274  A    between atoms: _675  and  _676
REMARK  275  A    between atoms: _679  and  _681
REMARK  276  A    between atoms: _681  and  _682
REMARK  277  A    between atoms: _684  and  _686
REMARK  278  A    between atoms: _686  and  _687
REMARK  279  A    between atoms: _686  and  _689
REMARK  280  A    between atoms: _689  and  _690
REMARK  281  A    between atoms: _693  and  _695
REMARK  282  A    between atoms: _695  and  _696
REMARK  283  A    between atoms: _695  and  _698
REMARK  284  A    between atoms: _701  and  _703
REMARK  285  A    between atoms: _703  and  _704
REMARK  286  A    between atoms: _706  and  _708
REMARK  287  A    between atoms: _708  and  _709
REMARK  288  A    between atoms: _712  and  _714
REMARK  289  A    between atoms: _714  and  _715
REMARK  290  A    between atoms: _714  and  _717
REMARK  291  A    between atoms: _720  and  _722
REMARK  292  A    between atoms: _722  and  _723
REMARK  293  A    between atoms: _722  and  _725
REMARK  294  A    between atoms: _725  and  _726
REMARK  295  A    between atoms: _726  and  _727
REMARK  296  A    between atoms: _729  and  _731
REMARK  297  A    between atoms: _731  and  _732
REMARK  298  A    between atoms: _731  and  _734
REMARK  299  A    between atoms: _734  and  _735
REMARK  300  A    between atoms: _735  and  _736
REMARK                            x       y       z     vdW  Elec       q    Type
REMARK                         _______ _______ _______ _____ _____    ______ ____
ROOT
ATOM      1  O   HOH     1      53.400  -2.826   8.638  0.00  0.00    +0.000 OA
ENDROOT
TORSDOF 0
REMARK  Name = ../refined-set-2016/4gid/4gid_pocket.pdb
REMARK  300 active torsions:
REMARK  status: ('A' for Active; 'I' for Inactive)
REMARK    1  A    between atoms: _1  and  _3
REMARK    2  A    between atoms: _3  and  _4
REMARK    3  A    between atoms: _6  and  _8
REMARK    4  A    between atoms: _8  and  _9
REMARK    5  A    between atoms: _8  and  _11
REMARK    6  A    between atoms: _11  and  _12
REMARK    7  A    between atoms: _12  and  _13
REMARK    8  A    between atoms: _13  and  _14
REMARK    9  A    between atoms: _14  and  _15
REMARK   10  A    between atoms: _19  and  _21
REMARK   11  A    between atoms: _21  and  _22
REMARK   12  A    between atoms: _21  and  _24
REMARK   13  A    between atoms: _24  and  _25
REMARK   14  A    between atoms: _27  and  _29
REMARK   15  A    between atoms: _29  and  _30
REMARK   16  A    between atoms: _32  and  _34
REMARK   17  A    between atoms: _34  and  _35
REMARK   18  A    between atoms: _34  and  _37
REMARK   19  A    between atoms: _37  and  _38
REMARK   20  A    between atoms: _38  and  _39
REMARK   21  A    between atoms: _44  and  _46
REMARK   22  A    between atoms: _46  and  _47
REMARK   23  A    between atoms: _49  and  _51
REMARK   24  A    between atoms: _51  and  _52
REMARK   25  A    between atoms: _51  and  _54
REMARK   26  A    between atoms: _54  and  _55
REMARK   27  A    between atoms: _60  and  _61
REMARK   28  A    between atoms: _63  and  _65
REMARK   29  A    between atoms: _65  and  _66
REMARK   30  A    between atoms: _65  and  _68
REMARK   31  A    between atoms: _68  and  _69
REMARK   32  A    between atoms: _74  and  _75
REMARK   33  A    between atoms: _77  and  _79
REMARK   34  A    between atoms: _79  and  _80
REMARK   35  A    between atoms: _79  and  _82
REMARK   36  A    between atoms: _82  and  _83
REMARK   37  A    between atoms: _86  and  _88
REMARK   38  A    between atoms: _88  and  _89
REMARK   39  A    between atoms: _88  and  _91
REMARK   40  A    between atoms: _94  and  _96
REMARK   41  A    between atoms: _96  and  _97
REMARK   42  A    between atoms: _96  and  _99
REMARK   43  A    between atoms: _99  and  _100
REMARK   44  A    between atoms: _103  and  _105
REMARK   45  A    between atoms: _105  and  _106
REMARK   46  A    between atoms: _105  and  _108
REMARK   47  A    between atoms: _108  and  _109
REMARK   48  A    between atoms: _112  and  _114
REMARK   49  A    between atoms: _114  and  _115
REMARK   50  A    between atoms: _117  and  _119
REMARK   51  A    between atoms: _119  and  _120
REMARK   52  A    between atoms: _119  and  _122
REMARK   53  A    between atoms: _122  and  _123
REMARK   54  A    between atoms: _125  and  _127
REMARK   55  A    between atoms: _127  and  _128
REMARK   56  A    between atoms: _127  and  _130
REMARK   57  A    between atoms: _130  and  _131
REMARK   58  A    between atoms: _133  and  _135
REMARK   59  A    between atoms: _135  and  _136
REMARK   60  A    between atoms: _135  and  _138
REMARK   61  A    between atoms: _138  and  _139
REMARK   62  A    between atoms: _144  and  _146
REMARK   63  A    between atoms: _146  and  _147
REMARK   64  A    between atoms: _146  and  _149
REMARK   65  A    between atoms: _149  and  _150
REMARK   66  A    between atoms: _155  and  _156
REMARK   67  A    between atoms: _158  and  _160
REMARK   68  A    between atoms: _160  and  _161
REMARK   69  A    between atoms: _160  and  _163
REMARK   70  A    between atoms: _167  and  _168
REMARK   71  A    between atoms: _173  and  _175
REMARK   72  A    between atoms: _175  and  _176
REMARK   73  A    between atoms: _175  and  _178
REMARK   74  A    between atoms: _178  and  _179
REMARK   75  A    between atoms: _184  and  _185
REMARK   76  A    between atoms: _187  and  _189
REMARK   77  A    between atoms: _189  and  _190
REMARK   78  A    between atoms: _189  and  _192
REMARK   79  A    between atoms: _192  and  _193
REMARK   80  A    between atoms: _196  and  _198
REMARK   81  A    between atoms: _198  and  _199
REMARK   82  A    between atoms: _198  and  _201
REMARK   83  A    between atoms: _201  and  _202
REMARK   84  A    between atoms: _202  and  _203
REMARK   85  A    between atoms: _208  and  _210
REMARK   86  A    between atoms: _210  and  _211
REMARK   87  A    between atoms: _213  and  _215
REMARK   88  A    between atoms: _215  and  _216
REMARK   89  A    between atoms: _215  and  _218
REMARK   90  A    between atoms: _218  and  _219
REMARK   91  A    between atoms: _219  and  _220
REMARK   92  A    between atoms: _220  and  _221
REMARK   93  A    between atoms: _221  and  _222
REMARK   94  A    between atoms: _226  and  _228
REMARK   95  A    between atoms: _228  and  _229
REMARK   96  A    between atoms: _228  and  _231
REMARK   97  A    between atoms: _231  and  _232
REMARK   98  A    between atoms: _242  and  _244
REMARK   99  A    between atoms: _244  and  _245
REMARK  100  A    between atoms: _244  and  _247
REMARK  101  A    between atoms: _247  and  _248
REMARK  102  A    between atoms: _251  and  _253
REMARK  103  A    between atoms: _253  and  _254
REMARK  104  A    between atoms: _253  and  _256
REMARK  105  A    between atoms: _256  and  _257
REMARK  106  A    between atoms: _257  and  _258
REMARK  107  A    between atoms: _258  and  _259
REMARK  108  A    between atoms: _259  and  _260
REMARK  109  A    between atoms: _264  and  _266
REMARK  110  A    between atoms: _266  and  _267
REMARK  111  A    between atoms: _266  and  _269
REMARK  112  A    between atoms: _269  and  _270
REMARK  113  A    between atoms: _276  and  _278
REMARK  114  A    between atoms: _278  and  _279
REMARK  115  A    between atoms: _278  and  _281
REMARK  116  A    between atoms: _281  and  _282
REMARK  117  A    between atoms: _288  and  _290
REMARK  118  A    between atoms: _290  and  _291
REMARK  119  A    between atoms: _290  and  _293
REMARK  120  A    between atoms: _293  and  _294
REMARK  121  A    between atoms: _297  and  _299
REMARK  122  A    between atoms: _299  and  _300
REMARK  123  A    between atoms: _299  and  _302
REMARK  124  A    between atoms: _302  and  _303
REMARK  125  A    between atoms: _305  and  _307
REMARK  126  A    between atoms: _307  and  _308
REMARK  127  A    between atoms: _307  and  _310
REMARK  128  A    between atoms: _310  and  _311
REMARK  129  A    between atoms: _321  and  _323
REMARK  130  A    between atoms: _323  and  _324
REMARK  131  A    between atoms: _326  and  _328
REMARK  132  A    between atoms: _328  and  _329
REMARK  133  A    between atoms: _328  and  _331
REMARK  134  A    between atoms: _331  and  _332
REMARK  135  A    between atoms: _335  and  _337
REMARK  136  A    between atoms: _337  and  _338
REMARK  137  A    between atoms: _337  and  _340
REMARK  138  A    between atoms: _340  and  _341
REMARK  139  A    between atoms: _344  and  _346
REMARK  140  A    between atoms: _346  and  _347
REMARK  141  A    between atoms: _349  and  _351
REMARK  142  A    between atoms: _351  and  _352
REMARK  143  A    between atoms: _355  and  _357
REMARK  144  A    between atoms: _357  and  _358
REMARK  145  A    between atoms: _357  and  _360
REMARK  146  A    between atoms: _360  and  _361
REMARK  147  A    between atoms: _366  and  _367
REMARK  148  A    between atoms: _369  and  _371
REMARK  149  A    between atoms: _371  and  _372
REMARK  150  A    between atoms: _371  and  _374
REMARK  151  A    between atoms: _374  and  _375
REMARK  152  A    between atoms: _375  and  _376
REMARK  153  A    between atoms: _379  and  _381
REMARK  154  A    between atoms: _381  and  _382
REMARK  155  A    between atoms: _381  and  _384
REMARK  156  A    between atoms: _384  and  _385
REMARK  157  A    between atoms: _388  and  _390
REMARK  158  A    between atoms: _390  and  _391
REMARK  159  A    between atoms: _394  and  _396
REMARK  160  A    between atoms: _396  and  _397
REMARK  161  A    between atoms: _396  and  _399
REMARK  162  A    between atoms: _399  and  _400
REMARK  163  A    between atoms: _400  and  _401
REMARK  164  A    between atoms: _401  and  _402
REMARK  165  A    between atoms: _411  and  _413
REMARK  166  A    between atoms: _413  and  _414
REMARK  167  A    between atoms: _413  and  _416
REMARK  168  A    between atoms: _416  and  _417
REMARK  169  A    between atoms: _420  and  _422
REMARK  170  A    between atoms: _422  and  _423
REMARK  171  A    between atoms: _422  and  _425
REMARK  172  A    between atoms: _425  and  _426
REMARK  173  A    between atoms: _436  and  _438
REMARK  174  A    between atoms: _438  and  _439
REMARK  175  A    between atoms: _438  and  _441
REMARK  176  A    between atoms: _441  and  _442
REMARK  177  A    between atoms: _447  and  _448
REMARK  178  A    between atoms: _450  and  _452
REMARK  179  A    between atoms: _452  and  _453
REMARK  180  A    between atoms: _452  and  _455
REMARK  181  A    between atoms: _455  and  _456
REMARK  182  A    between atoms: _461  and  _462
REMARK  183  A    between atoms: _464  and  _466
REMARK  184  A    between atoms: _466  and  _467
REMARK  185  A    between atoms: _466  and  _469
REMARK  186  A    between atoms: _469  and  _470
REMARK  187  A    between atoms: _470  and  _471
REMARK  188  A    between atoms: _471  and  _472
REMARK  189  A    between atoms: _472  and  _473
REMARK  190  A    between atoms: _477  and  _479
REMARK  191  A    between atoms: _479  and  _480
REMARK  192  A    between atoms: _479  and  _482
REMARK  193  A    between atoms: _482  and  _483
REMARK  194  A    between atoms: _486  and  _488
REMARK  195  A    between atoms: _488  and  _489
REMARK  196  A    between atoms: _488  and  _491
REMARK  197  A    between atoms: _494  and  _496
REMARK  198  A    between atoms: _496  and  _497
REMARK  199  A    between atoms: _496  and  _499
REMARK  200  A    between atoms: _499  and  _500
REMARK  201  A    between atoms: _503  and  _505
REMARK  202  A    between atoms: _505  and  _506
REMARK  203  A    between atoms: _505  and  _508
REMARK  204  A    between atoms: _508  and  _509
REMARK  205  A    between atoms: _511  and  _513
REMARK  206  A    between atoms: _513  and  _514
REMARK  207  A    between atoms: _516  and  _518
REMARK  208  A    between atoms: _518  and  _519
REMARK  209  A    between atoms: _518  and  _521
REMARK  210  A    between atoms: _521  and  _522
REMARK  211  A    between atoms: _525  and  _527
REMARK  212  A    between atoms: _527  and  _528
REMARK  213  A    between atoms: _527  and  _530
REMARK  214  A    between atoms: _530  and  _531
REMARK  215  A    between atoms: _534  and  _536
REMARK  216  A    between atoms: _536  and  _537
REMARK  217  A    between atoms: _536  and  _539
REMARK  218  A    between atoms: _539  and  _540
REMARK  219  A    between atoms: _545  and  _547
REMARK  220  A    between atoms: _547  and  _548
REMARK  221  A    between atoms: _547  and  _550
REMARK  222  A    between atoms: _550  and  _551
REMARK  223  A    between atoms: _554  and  _556
REMARK  224  A    between atoms: _556  and  _557
REMARK  225  A    between atoms: _556  and  _559
REMARK  226  A    between atoms: _559  and  _560
REMARK  227  A    between atoms: _560  and  _561
REMARK  228  A    between atoms: _561  and  _562
REMARK  229  A    between atoms: _571  and  _573
REMARK  230  A    between atoms: _573  and  _574
REMARK  231  A    between atoms: _573  and  _576
REMARK  232  A    between atoms: _576  and  _577
REMARK  233  A    between atoms: _580  and  _582
REMARK  234  A    between atoms: _582  and  _583
REMARK  235  A    between atoms: _585  and  _587
REMARK  236  A    between atoms: _587  and  _588
REMARK  237  A    between atoms: _587  and  _590
REMARK  238  A    between atoms: _590  and  _591
REMARK  239  A    between atoms: _591  and  _592
REMARK  240  A    between atoms: _592  and  _593
REMARK  241  A    between atoms: _602  and  _604
REMARK  242  A    between atoms: _604  and  _605
REMARK  243  A    between atoms: _604  and  _607
REMARK  244  A    between atoms: _607  and  _608
REMARK  245  A    between atoms: _608  and  _609
REMARK  246  A    between atoms: _609  and  _610
REMARK  247  A    between atoms: _610  and  _611
REMARK  248  A    between atoms: _615  and  _617
REMARK  249  A    between atoms: _617  and  _618
REMARK  250  A    between atoms: _617  and  _620
REMARK  251  A    between atoms: _620  and  _621
REMARK  252  A    between atoms: _627  and  _629
REMARK  253  A    between atoms: _629  and  _630
REMARK  254  A    between atoms: _633  and  _635
REMARK  255  A    between atoms: _635  and  _636
REMARK  256  A    between atoms: _635  and  _638
REMARK  257  A    between atoms: _638  and  _639
REMARK  258  A    between atoms: _642  and  _644
REMARK  259  A    between atoms: _644  and  _645
REMARK  260  A    between atoms: _644  and  _647
REMARK  261  A    between atoms: _647  and  _648
REMARK  262  A    between atoms: _650  and  _652
REMARK  263  A    between atoms: _652  and  _653
REMARK  264  A    between atoms: _652  and  _655
REMARK  265  A    between atoms: _655  and  _656
REMARK  266  A    between atoms: _656  and  _657
REMARK  267  A    between atoms: _662  and  _664
REMARK  268  A    between atoms: _664  and  _665
REMARK  269  A    between atoms: _664  and  _667
REMARK  270  A    between atoms: _667  and  _668
REMARK  271  A    between atoms: _670  and  _672
REMARK  272  A    between atoms: _672  and  _673
REMARK  273  A    between atoms: _672  and  _675
REMARK  274  A    between atoms: _675  and  _676
REMARK  275  A    between atoms: _679  and  _681
REMARK  276  A    between atoms: _681  and  _682
REMARK  277  A    between atoms: _684  and  _686
REMARK  278  A    between atoms: _686  and  _687
REMARK  279  A    between atoms: _686  and  _689
REMARK  280  A    between atoms: _689  and  _690
REMARK  281  A    between atoms: _693  and  _695
REMARK  282  A    between atoms: _695  and  _696
REMARK  283  A    between atoms: _695  and  _698
REMARK  284  A    between atoms: _701  and  _703
REMARK  285  A    between atoms: _703  and  _704
REMARK  286  A    between atoms: _706  and  _708
REMARK  287  A    between atoms: _708  and  _709
REMARK  288  A    between atoms: _712  and  _714
REMARK  289  A    between atoms: _714  and  _715
REMARK  290  A    between atoms: _714  and  _717
REMARK  291  A    between atoms: _720  and  _722
REMARK  292  A    between atoms: _722  and  _723
REMARK  293  A    between atoms: _722  and  _725
REMARK  294  A    between atoms: _725  and  _726
REMARK  295  A    between atoms: _726  and  _727
REMARK  296  A    between atoms: _729  and  _731
REMARK  297  A    between atoms: _731  and  _732
REMARK  298  A    between atoms: _731  and  _734
REMARK  299  A    between atoms: _734  and  _735
REMARK  300  A    between atoms: _735  and  _736
REMARK                            x       y       z     vdW  Elec       q    Type
REMARK                         _______ _______ _______ _____ _____    ______ ____
ROOT
ATOM      1  O   HOH     1      29.737  -1.882   9.301  0.00  0.00    +0.000 OA
ENDROOT
TORSDOF 0
REMARK  Name = ../refined-set-2016/4gid/4gid_pocket.pdb
REMARK  300 active torsions:
REMARK  status: ('A' for Active; 'I' for Inactive)
REMARK    1  A    between atoms: _1  and  _3
REMARK    2  A    between atoms: _3  and  _4
REMARK    3  A    between atoms: _6  and  _8
REMARK    4  A    between atoms: _8  and  _9
REMARK    5  A    between atoms: _8  and  _11
REMARK    6  A    between atoms: _11  and  _12
REMARK    7  A    between atoms: _12  and  _13
REMARK    8  A    between atoms: _13  and  _14
REMARK    9  A    between atoms: _14  and  _15
REMARK   10  A    between atoms: _19  and  _21
REMARK   11  A    between atoms: _21  and  _22
REMARK   12  A    between atoms: _21  and  _24
REMARK   13  A    between atoms: _24  and  _25
REMARK   14  A    between atoms: _27  and  _29
REMARK   15  A    between atoms: _29  and  _30
REMARK   16  A    between atoms: _32  and  _34
REMARK   17  A    between atoms: _34  and  _35
REMARK   18  A    between atoms: _34  and  _37
REMARK   19  A    between atoms: _37  and  _38
REMARK   20  A    between atoms: _38  and  _39
REMARK   21  A    between atoms: _44  and  _46
REMARK   22  A    between atoms: _46  and  _47
REMARK   23  A    between atoms: _49  and  _51
REMARK   24  A    between atoms: _51  and  _52
REMARK   25  A    between atoms: _51  and  _54
REMARK   26  A    between atoms: _54  and  _55
REMARK   27  A    between atoms: _60  and  _61
REMARK   28  A    between atoms: _63  and  _65
REMARK   29  A    between atoms: _65  and  _66
REMARK   30  A    between atoms: _65  and  _68
REMARK   31  A    between atoms: _68  and  _69
REMARK   32  A    between atoms: _74  and  _75
REMARK   33  A    between atoms: _77  and  _79
REMARK   34  A    between atoms: _79  and  _80
REMARK   35  A    between atoms: _79  and  _82
REMARK   36  A    between atoms: _82  and  _83
REMARK   37  A    between atoms: _86  and  _88
REMARK   38  A    between atoms: _88  and  _89
REMARK   39  A    between atoms: _88  and  _91
REMARK   40  A    between atoms: _94  and  _96
REMARK   41  A    between atoms: _96  and  _97
REMARK   42  A    between atoms: _96  and  _99
REMARK   43  A    between atoms: _99  and  _100
REMARK   44  A    between atoms: _103  and  _105
REMARK   45  A    between atoms: _105  and  _106
REMARK   46  A    between atoms: _105  and  _108
REMARK   47  A    between atoms: _108  and  _109
REMARK   48  A    between atoms: _112  and  _114
REMARK   49  A    between atoms: _114  and  _115
REMARK   50  A    between atoms: _117  and  _119
REMARK   51  A    between atoms: _119  and  _120
REMARK   52  A    between atoms: _119  and  _122
REMARK   53  A    between atoms: _122  and  _123
REMARK   54  A    between atoms: _125  and  _127
REMARK   55  A    between atoms: _127  and  _128
REMARK   56  A    between atoms: _127  and  _130
REMARK   57  A    between atoms: _130  and  _131
REMARK   58  A    between atoms: _133  and  _135
REMARK   59  A    between atoms: _135  and  _136
REMARK   60  A    between atoms: _135  and  _138
REMARK   61  A    between atoms: _138  and  _139
REMARK   62  A    between atoms: _144  and  _146
REMARK   63  A    between atoms: _146  and  _147
REMARK   64  A    between atoms: _146  and  _149
REMARK   65  A    between atoms: _149  and  _150
REMARK   66  A    between atoms: _155  and  _156
REMARK   67  A    between atoms: _158  and  _160
REMARK   68  A    between atoms: _160  and  _161
REMARK   69  A    between atoms: _160  and  _163
REMARK   70  A    between atoms: _167  and  _168
REMARK   71  A    between atoms: _173  and  _175
REMARK   72  A    between atoms: _175  and  _176
REMARK   73  A    between atoms: _175  and  _178
REMARK   74  A    between atoms: _178  and  _179
REMARK   75  A    between atoms: _184  and  _185
REMARK   76  A    between atoms: _187  and  _189
REMARK   77  A    between atoms: _189  and  _190
REMARK   78  A    between atoms: _189  and  _192
REMARK   79  A    between atoms: _192  and  _193
REMARK   80  A    between atoms: _196  and  _198
REMARK   81  A    between atoms: _198  and  _199
REMARK   82  A    between atoms: _198  and  _201
REMARK   83  A    between atoms: _201  and  _202
REMARK   84  A    between atoms: _202  and  _203
REMARK   85  A    between atoms: _208  and  _210
REMARK   86  A    between atoms: _210  and  _211
REMARK   87  A    between atoms: _213  and  _215
REMARK   88  A    between atoms: _215  and  _216
REMARK   89  A    between atoms: _215  and  _218
REMARK   90  A    between atoms: _218  and  _219
REMARK   91  A    between atoms: _219  and  _220
REMARK   92  A    between atoms: _220  and  _221
REMARK   93  A    between atoms: _221  and  _222
REMARK   94  A    between atoms: _226  and  _228
REMARK   95  A    between atoms: _228  and  _229
REMARK   96  A    between atoms: _228  and  _231
REMARK   97  A    between atoms: _231  and  _232
REMARK   98  A    between atoms: _242  and  _244
REMARK   99  A    between atoms: _244  and  _245
REMARK  100  A    between atoms: _244  and  _247
REMARK  101  A    between atoms: _247  and  _248
REMARK  102  A    between atoms: _251  and  _253
REMARK  103  A    between atoms: _253  and  _254
REMARK  104  A    between atoms: _253  and  _256
REMARK  105  A    between atoms: _256  and  _257
REMARK  106  A    between atoms: _257  and  _258
REMARK  107  A    between atoms: _258  and  _259
REMARK  108  A    between atoms: _259  and  _260
REMARK  109  A    between atoms: _264  and  _266
REMARK  110  A    between atoms: _266  and  _267
REMARK  111  A    between atoms: _266  and  _269
REMARK  112  A    between atoms: _269  and  _270
REMARK  113  A    between atoms: _276  and  _278
REMARK  114  A    between atoms: _278  and  _279
REMARK  115  A    between atoms: _278  and  _281
REMARK  116  A    between atoms: _281  and  _282
REMARK  117  A    between atoms: _288  and  _290
REMARK  118  A    between atoms: _290  and  _291
REMARK  119  A    between atoms: _290  and  _293
REMARK  120  A    between atoms: _293  and  _294
REMARK  121  A    between atoms: _297  and  _299
REMARK  122  A    between atoms: _299  and  _300
REMARK  123  A    between atoms: _299  and  _302
REMARK  124  A    between atoms: _302  and  _303
REMARK  125  A    between atoms: _305  and  _307
REMARK  126  A    between atoms: _307  and  _308
REMARK  127  A    between atoms: _307  and  _310
REMARK  128  A    between atoms: _310  and  _311
REMARK  129  A    between atoms: _321  and  _323
REMARK  130  A    between atoms: _323  and  _324
REMARK  131  A    between atoms: _326  and  _328
REMARK  132  A    between atoms: _328  and  _329
REMARK  133  A    between atoms: _328  and  _331
REMARK  134  A    between atoms: _331  and  _332
REMARK  135  A    between atoms: _335  and  _337
REMARK  136  A    between atoms: _337  and  _338
REMARK  137  A    between atoms: _337  and  _340
REMARK  138  A    between atoms: _340  and  _341
REMARK  139  A    between atoms: _344  and  _346
REMARK  140  A    between atoms: _346  and  _347
REMARK  141  A    between atoms: _349  and  _351
REMARK  142  A    between atoms: _351  and  _352
REMARK  143  A    between atoms: _355  and  _357
REMARK  144  A    between atoms: _357  and  _358
REMARK  145  A    between atoms: _357  and  _360
REMARK  146  A    between atoms: _360  and  _361
REMARK  147  A    between atoms: _366  and  _367
REMARK  148  A    between atoms: _369  and  _371
REMARK  149  A    between atoms: _371  and  _372
REMARK  150  A    between atoms: _371  and  _374
REMARK  151  A    between atoms: _374  and  _375
REMARK  152  A    between atoms: _375  and  _376
REMARK  153  A    between atoms: _379  and  _381
REMARK  154  A    between atoms: _381  and  _382
REMARK  155  A    between atoms: _381  and  _384
REMARK  156  A    between atoms: _384  and  _385
REMARK  157  A    between atoms: _388  and  _390
REMARK  158  A    between atoms: _390  and  _391
REMARK  159  A    between atoms: _394  and  _396
REMARK  160  A    between atoms: _396  and  _397
REMARK  161  A    between atoms: _396  and  _399
REMARK  162  A    between atoms: _399  and  _400
REMARK  163  A    between atoms: _400  and  _401
REMARK  164  A    between atoms: _401  and  _402
REMARK  165  A    between atoms: _411  and  _413
REMARK  166  A    between atoms: _413  and  _414
REMARK  167  A    between atoms: _413  and  _416
REMARK  168  A    between atoms: _416  and  _417
REMARK  169  A    between atoms: _420  and  _422
REMARK  170  A    between atoms: _422  and  _423
REMARK  171  A    between atoms: _422  and  _425
REMARK  172  A    between atoms: _425  and  _426
REMARK  173  A    between atoms: _436  and  _438
REMARK  174  A    between atoms: _438  and  _439
REMARK  175  A    between atoms: _438  and  _441
REMARK  176  A    between atoms: _441  and  _442
REMARK  177  A    between atoms: _447  and  _448
REMARK  178  A    between atoms: _450  and  _452
REMARK  179  A    between atoms: _452  and  _453
REMARK  180  A    between atoms: _452  and  _455
REMARK  181  A    between atoms: _455  and  _456
REMARK  182  A    between atoms: _461  and  _462
REMARK  183  A    between atoms: _464  and  _466
REMARK  184  A    between atoms: _466  and  _467
REMARK  185  A    between atoms: _466  and  _469
REMARK  186  A    between atoms: _469  and  _470
REMARK  187  A    between atoms: _470  and  _471
REMARK  188  A    between atoms: _471  and  _472
REMARK  189  A    between atoms: _472  and  _473
REMARK  190  A    between atoms: _477  and  _479
REMARK  191  A    between atoms: _479  and  _480
REMARK  192  A    between atoms: _479  and  _482
REMARK  193  A    between atoms: _482  and  _483
REMARK  194  A    between atoms: _486  and  _488
REMARK  195  A    between atoms: _488  and  _489
REMARK  196  A    between atoms: _488  and  _491
REMARK  197  A    between atoms: _494  and  _496
REMARK  198  A    between atoms: _496  and  _497
REMARK  199  A    between atoms: _496  and  _499
REMARK  200  A    between atoms: _499  and  _500
REMARK  201  A    between atoms: _503  and  _505
REMARK  202  A    between atoms: _505  and  _506
REMARK  203  A    between atoms: _505  and  _508
REMARK  204  A    between atoms: _508  and  _509
REMARK  205  A    between atoms: _511  and  _513
REMARK  206  A    between atoms: _513  and  _514
REMARK  207  A    between atoms: _516  and  _518
REMARK  208  A    between atoms: _518  and  _519
REMARK  209  A    between atoms: _518  and  _521
REMARK  210  A    between atoms: _521  and  _522
REMARK  211  A    between atoms: _525  and  _527
REMARK  212  A    between atoms: _527  and  _528
REMARK  213  A    between atoms: _527  and  _530
REMARK  214  A    between atoms: _530  and  _531
REMARK  215  A    between atoms: _534  and  _536
REMARK  216  A    between atoms: _536  and  _537
REMARK  217  A    between atoms: _536  and  _539
REMARK  218  A    between atoms: _539  and  _540
REMARK  219  A    between atoms: _545  and  _547
REMARK  220  A    between atoms: _547  and  _548
REMARK  221  A    between atoms: _547  and  _550
REMARK  222  A    between atoms: _550  and  _551
REMARK  223  A    between atoms: _554  and  _556
REMARK  224  A    between atoms: _556  and  _557
REMARK  225  A    between atoms: _556  and  _559
REMARK  226  A    between atoms: _559  and  _560
REMARK  227  A    between atoms: _560  and  _561
REMARK  228  A    between atoms: _561  and  _562
REMARK  229  A    between atoms: _571  and  _573
REMARK  230  A    between atoms: _573  and  _574
REMARK  231  A    between atoms: _573  and  _576
REMARK  232  A    between atoms: _576  and  _577
REMARK  233  A    between atoms: _580  and  _582
REMARK  234  A    between atoms: _582  and  _583
REMARK  235  A    between atoms: _585  and  _587
REMARK  236  A    between atoms: _587  and  _588
REMARK  237  A    between atoms: _587  and  _590
REMARK  238  A    between atoms: _590  and  _591
REMARK  239  A    between atoms: _591  and  _592
REMARK  240  A    between atoms: _592  and  _593
REMARK  241  A    between atoms: _602  and  _604
REMARK  242  A    between atoms: _604  and  _605
REMARK  243  A    between atoms: _604  and  _607
REMARK  244  A    between atoms: _607  and  _608
REMARK  245  A    between atoms: _608  and  _609
REMARK  246  A    between atoms: _609  and  _610
REMARK  247  A    between atoms: _610  and  _611
REMARK  248  A    between atoms: _615  and  _617
REMARK  249  A    between atoms: _617  and  _618
REMARK  250  A    between atoms: _617  and  _620
REMARK  251  A    between atoms: _620  and  _621
REMARK  252  A    between atoms: _627  and  _629
REMARK  253  A    between atoms: _629  and  _630
REMARK  254  A    between atoms: _633  and  _635
REMARK  255  A    between atoms: _635  and  _636
REMARK  256  A    between atoms: _635  and  _638
REMARK  257  A    between atoms: _638  and  _639
REMARK  258  A    between atoms: _642  and  _644
REMARK  259  A    between atoms: _644  and  _645
REMARK  260  A    between atoms: _644  and  _647
REMARK  261  A    between atoms: _647  and  _648
REMARK  262  A    between atoms: _650  and  _652
REMARK  263  A    between atoms: _652  and  _653
REMARK  264  A    between atoms: _652  and  _655
REMARK  265  A    between atoms: _655  and  _656
REMARK  266  A    between atoms: _656  and  _657
REMARK  267  A    between atoms: _662  and  _664
REMARK  268  A    between atoms: _664  and  _665
REMARK  269  A    between atoms: _664  and  _667
REMARK  270  A    between atoms: _667  and  _668
REMARK  271  A    between atoms: _670  and  _672
REMARK  272  A    between atoms: _672  and  _673
REMARK  273  A    between atoms: _672  and  _675
REMARK  274  A    between atoms: _675  and  _676
REMARK  275  A    between atoms: _679  and  _681
REMARK  276  A    between atoms: _681  and  _682
REMARK  277  A    between atoms: _684  and  _686
REMARK  278  A    between atoms: _686  and  _687
REMARK  279  A    between atoms: _686  and  _689
REMARK  280  A    between atoms: _689  and  _690
REMARK  281  A    between atoms: _693  and  _695
REMARK  282  A    between atoms: _695  and  _696
REMARK  283  A    between atoms: _695  and  _698
REMARK  284  A    between atoms: _701  and  _703
REMARK  285  A    between atoms: _703  and  _704
REMARK  286  A    between atoms: _706  and  _708
REMARK  287  A    between atoms: _708  and  _709
REMARK  288  A    between atoms: _712  and  _714
REMARK  289  A    between atoms: _714  and  _715
REMARK  290  A    between atoms: _714  and  _717
REMARK  291  A    between atoms: _720  and  _722
REMARK  292  A    between atoms: _722  and  _723
REMARK  293  A    between atoms: _722  and  _725
REMARK  294  A    between atoms: _725  and  _726
REMARK  295  A    between atoms: _726  and  _727
REMARK  296  A    between atoms: _729  and  _731
REMARK  297  A    between atoms: _731  and  _732
REMARK  298  A    between atoms: _731  and  _734
REMARK  299  A    between atoms: _734  and  _735
REMARK  300  A    between atoms: _735  and  _736
REMARK                            x       y       z     vdW  Elec       q    Type
REMARK                         _______ _______ _______ _____ _____    ______ ____
ROOT
ATOM      1  O   HOH     1      47.012  -7.909   5.333  0.00  0.00    +0.000 OA
ENDROOT
TORSDOF 0
REMARK  Name = ../refined-set-2016/4gid/4gid_pocket.pdb
REMARK  300 active torsions:
REMARK  status: ('A' for Active; 'I' for Inactive)
REMARK    1  A    between atoms: _1  and  _3
REMARK    2  A    between atoms: _3  and  _4
REMARK    3  A    between atoms: _6  and  _8
REMARK    4  A    between atoms: _8  and  _9
REMARK    5  A    between atoms: _8  and  _11
REMARK    6  A    between atoms: _11  and  _12
REMARK    7  A    between atoms: _12  and  _13
REMARK    8  A    between atoms: _13  and  _14
REMARK    9  A    between atoms: _14  and  _15
REMARK   10  A    between atoms: _19  and  _21
REMARK   11  A    between atoms: _21  and  _22
REMARK   12  A    between atoms: _21  and  _24
REMARK   13  A    between atoms: _24  and  _25
REMARK   14  A    between atoms: _27  and  _29
REMARK   15  A    between atoms: _29  and  _30
REMARK   16  A    between atoms: _32  and  _34
REMARK   17  A    between atoms: _34  and  _35
REMARK   18  A    between atoms: _34  and  _37
REMARK   19  A    between atoms: _37  and  _38
REMARK   20  A    between atoms: _38  and  _39
REMARK   21  A    between atoms: _44  and  _46
REMARK   22  A    between atoms: _46  and  _47
REMARK   23  A    between atoms: _49  and  _51
REMARK   24  A    between atoms: _51  and  _52
REMARK   25  A    between atoms: _51  and  _54
REMARK   26  A    between atoms: _54  and  _55
REMARK   27  A    between atoms: _60  and  _61
REMARK   28  A    between atoms: _63  and  _65
REMARK   29  A    between atoms: _65  and  _66
REMARK   30  A    between atoms: _65  and  _68
REMARK   31  A    between atoms: _68  and  _69
REMARK   32  A    between atoms: _74  and  _75
REMARK   33  A    between atoms: _77  and  _79
REMARK   34  A    between atoms: _79  and  _80
REMARK   35  A    between atoms: _79  and  _82
REMARK   36  A    between atoms: _82  and  _83
REMARK   37  A    between atoms: _86  and  _88
REMARK   38  A    between atoms: _88  and  _89
REMARK   39  A    between atoms: _88  and  _91
REMARK   40  A    between atoms: _94  and  _96
REMARK   41  A    between atoms: _96  and  _97
REMARK   42  A    between atoms: _96  and  _99
REMARK   43  A    between atoms: _99  and  _100
REMARK   44  A    between atoms: _103  and  _105
REMARK   45  A    between atoms: _105  and  _106
REMARK   46  A    between atoms: _105  and  _108
REMARK   47  A    between atoms: _108  and  _109
REMARK   48  A    between atoms: _112  and  _114
REMARK   49  A    between atoms: _114  and  _115
REMARK   50  A    between atoms: _117  and  _119
REMARK   51  A    between atoms: _119  and  _120
REMARK   52  A    between atoms: _119  and  _122
REMARK   53  A    between atoms: _122  and  _123
REMARK   54  A    between atoms: _125  and  _127
REMARK   55  A    between atoms: _127  and  _128
REMARK   56  A    between atoms: _127  and  _130
REMARK   57  A    between atoms: _130  and  _131
REMARK   58  A    between atoms: _133  and  _135
REMARK   59  A    between atoms: _135  and  _136
REMARK   60  A    between atoms: _135  and  _138
REMARK   61  A    between atoms: _138  and  _139
REMARK   62  A    between atoms: _144  and  _146
REMARK   63  A    between atoms: _146  and  _147
REMARK   64  A    between atoms: _146  and  _149
REMARK   65  A    between atoms: _149  and  _150
REMARK   66  A    between atoms: _155  and  _156
REMARK   67  A    between atoms: _158  and  _160
REMARK   68  A    between atoms: _160  and  _161
REMARK   69  A    between atoms: _160  and  _163
REMARK   70  A    between atoms: _167  and  _168
REMARK   71  A    between atoms: _173  and  _175
REMARK   72  A    between atoms: _175  and  _176
REMARK   73  A    between atoms: _175  and  _178
REMARK   74  A    between atoms: _178  and  _179
REMARK   75  A    between atoms: _184  and  _185
REMARK   76  A    between atoms: _187  and  _189
REMARK   77  A    between atoms: _189  and  _190
REMARK   78  A    between atoms: _189  and  _192
REMARK   79  A    between atoms: _192  and  _193
REMARK   80  A    between atoms: _196  and  _198
REMARK   81  A    between atoms: _198  and  _199
REMARK   82  A    between atoms: _198  and  _201
REMARK   83  A    between atoms: _201  and  _202
REMARK   84  A    between atoms: _202  and  _203
REMARK   85  A    between atoms: _208  and  _210
REMARK   86  A    between atoms: _210  and  _211
REMARK   87  A    between atoms: _213  and  _215
REMARK   88  A    between atoms: _215  and  _216
REMARK   89  A    between atoms: _215  and  _218
REMARK   90  A    between atoms: _218  and  _219
REMARK   91  A    between atoms: _219  and  _220
REMARK   92  A    between atoms: _220  and  _221
REMARK   93  A    between atoms: _221  and  _222
REMARK   94  A    between atoms: _226  and  _228
REMARK   95  A    between atoms: _228  and  _229
REMARK   96  A    between atoms: _228  and  _231
REMARK   97  A    between atoms: _231  and  _232
REMARK   98  A    between atoms: _242  and  _244
REMARK   99  A    between atoms: _244  and  _245
REMARK  100  A    between atoms: _244  and  _247
REMARK  101  A    between atoms: _247  and  _248
REMARK  102  A    between atoms: _251  and  _253
REMARK  103  A    between atoms: _253  and  _254
REMARK  104  A    between atoms: _253  and  _256
REMARK  105  A    between atoms: _256  and  _257
REMARK  106  A    between atoms: _257  and  _258
REMARK  107  A    between atoms: _258  and  _259
REMARK  108  A    between atoms: _259  and  _260
REMARK  109  A    between atoms: _264  and  _266
REMARK  110  A    between atoms: _266  and  _267
REMARK  111  A    between atoms: _266  and  _269
REMARK  112  A    between atoms: _269  and  _270
REMARK  113  A    between atoms: _276  and  _278
REMARK  114  A    between atoms: _278  and  _279
REMARK  115  A    between atoms: _278  and  _281
REMARK  116  A    between atoms: _281  and  _282
REMARK  117  A    between atoms: _288  and  _290
REMARK  118  A    between atoms: _290  and  _291
REMARK  119  A    between atoms: _290  and  _293
REMARK  120  A    between atoms: _293  and  _294
REMARK  121  A    between atoms: _297  and  _299
REMARK  122  A    between atoms: _299  and  _300
REMARK  123  A    between atoms: _299  and  _302
REMARK  124  A    between atoms: _302  and  _303
REMARK  125  A    between atoms: _305  and  _307
REMARK  126  A    between atoms: _307  and  _308
REMARK  127  A    between atoms: _307  and  _310
REMARK  128  A    between atoms: _310  and  _311
REMARK  129  A    between atoms: _321  and  _323
REMARK  130  A    between atoms: _323  and  _324
REMARK  131  A    between atoms: _326  and  _328
REMARK  132  A    between atoms: _328  and  _329
REMARK  133  A    between atoms: _328  and  _331
REMARK  134  A    between atoms: _331  and  _332
REMARK  135  A    between atoms: _335  and  _337
REMARK  136  A    between atoms: _337  and  _338
REMARK  137  A    between atoms: _337  and  _340
REMARK  138  A    between atoms: _340  and  _341
REMARK  139  A    between atoms: _344  and  _346
REMARK  140  A    between atoms: _346  and  _347
REMARK  141  A    between atoms: _349  and  _351
REMARK  142  A    between atoms: _351  and  _352
REMARK  143  A    between atoms: _355  and  _357
REMARK  144  A    between atoms: _357  and  _358
REMARK  145  A    between atoms: _357  and  _360
REMARK  146  A    between atoms: _360  and  _361
REMARK  147  A    between atoms: _366  and  _367
REMARK  148  A    between atoms: _369  and  _371
REMARK  149  A    between atoms: _371  and  _372
REMARK  150  A    between atoms: _371  and  _374
REMARK  151  A    between atoms: _374  and  _375
REMARK  152  A    between atoms: _375  and  _376
REMARK  153  A    between atoms: _379  and  _381
REMARK  154  A    between atoms: _381  and  _382
REMARK  155  A    between atoms: _381  and  _384
REMARK  156  A    between atoms: _384  and  _385
REMARK  157  A    between atoms: _388  and  _390
REMARK  158  A    between atoms: _390  and  _391
REMARK  159  A    between atoms: _394  and  _396
REMARK  160  A    between atoms: _396  and  _397
REMARK  161  A    between atoms: _396  and  _399
REMARK  162  A    between atoms: _399  and  _400
REMARK  163  A    between atoms: _400  and  _401
REMARK  164  A    between atoms: _401  and  _402
REMARK  165  A    between atoms: _411  and  _413
REMARK  166  A    between atoms: _413  and  _414
REMARK  167  A    between atoms: _413  and  _416
REMARK  168  A    between atoms: _416  and  _417
REMARK  169  A    between atoms: _420  and  _422
REMARK  170  A    between atoms: _422  and  _423
REMARK  171  A    between atoms: _422  and  _425
REMARK  172  A    between atoms: _425  and  _426
REMARK  173  A    between atoms: _436  and  _438
REMARK  174  A    between atoms: _438  and  _439
REMARK  175  A    between atoms: _438  and  _441
REMARK  176  A    between atoms: _441  and  _442
REMARK  177  A    between atoms: _447  and  _448
REMARK  178  A    between atoms: _450  and  _452
REMARK  179  A    between atoms: _452  and  _453
REMARK  180  A    between atoms: _452  and  _455
REMARK  181  A    between atoms: _455  and  _456
REMARK  182  A    between atoms: _461  and  _462
REMARK  183  A    between atoms: _464  and  _466
REMARK  184  A    between atoms: _466  and  _467
REMARK  185  A    between atoms: _466  and  _469
REMARK  186  A    between atoms: _469  and  _470
REMARK  187  A    between atoms: _470  and  _471
REMARK  188  A    between atoms: _471  and  _472
REMARK  189  A    between atoms: _472  and  _473
REMARK  190  A    between atoms: _477  and  _479
REMARK  191  A    between atoms: _479  and  _480
REMARK  192  A    between atoms: _479  and  _482
REMARK  193  A    between atoms: _482  and  _483
REMARK  194  A    between atoms: _486  and  _488
REMARK  195  A    between atoms: _488  and  _489
REMARK  196  A    between atoms: _488  and  _491
REMARK  197  A    between atoms: _494  and  _496
REMARK  198  A    between atoms: _496  and  _497
REMARK  199  A    between atoms: _496  and  _499
REMARK  200  A    between atoms: _499  and  _500
REMARK  201  A    between atoms: _503  and  _505
REMARK  202  A    between atoms: _505  and  _506
REMARK  203  A    between atoms: _505  and  _508
REMARK  204  A    between atoms: _508  and  _509
REMARK  205  A    between atoms: _511  and  _513
REMARK  206  A    between atoms: _513  and  _514
REMARK  207  A    between atoms: _516  and  _518
REMARK  208  A    between atoms: _518  and  _519
REMARK  209  A    between atoms: _518  and  _521
REMARK  210  A    between atoms: _521  and  _522
REMARK  211  A    between atoms: _525  and  _527
REMARK  212  A    between atoms: _527  and  _528
REMARK  213  A    between atoms: _527  and  _530
REMARK  214  A    between atoms: _530  and  _531
REMARK  215  A    between atoms: _534  and  _536
REMARK  216  A    between atoms: _536  and  _537
REMARK  217  A    between atoms: _536  and  _539
REMARK  218  A    between atoms: _539  and  _540
REMARK  219  A    between atoms: _545  and  _547
REMARK  220  A    between atoms: _547  and  _548
REMARK  221  A    between atoms: _547  and  _550
REMARK  222  A    between atoms: _550  and  _551
REMARK  223  A    between atoms: _554  and  _556
REMARK  224  A    between atoms: _556  and  _557
REMARK  225  A    between atoms: _556  and  _559
REMARK  226  A    between atoms: _559  and  _560
REMARK  227  A    between atoms: _560  and  _561
REMARK  228  A    between atoms: _561  and  _562
REMARK  229  A    between atoms: _571  and  _573
REMARK  230  A    between atoms: _573  and  _574
REMARK  231  A    between atoms: _573  and  _576
REMARK  232  A    between atoms: _576  and  _577
REMARK  233  A    between atoms: _580  and  _582
REMARK  234  A    between atoms: _582  and  _583
REMARK  235  A    between atoms: _585  and  _587
REMARK  236  A    between atoms: _587  and  _588
REMARK  237  A    between atoms: _587  and  _590
REMARK  238  A    between atoms: _590  and  _591
REMARK  239  A    between atoms: _591  and  _592
REMARK  240  A    between atoms: _592  and  _593
REMARK  241  A    between atoms: _602  and  _604
REMARK  242  A    between atoms: _604  and  _605
REMARK  243  A    between atoms: _604  and  _607
REMARK  244  A    between atoms: _607  and  _608
REMARK  245  A    between atoms: _608  and  _609
REMARK  246  A    between atoms: _609  and  _610
REMARK  247  A    between atoms: _610  and  _611
REMARK  248  A    between atoms: _615  and  _617
REMARK  249  A    between atoms: _617  and  _618
REMARK  250  A    between atoms: _617  and  _620
REMARK  251  A    between atoms: _620  and  _621
REMARK  252  A    between atoms: _627  and  _629
REMARK  253  A    between atoms: _629  and  _630
REMARK  254  A    between atoms: _633  and  _635
REMARK  255  A    between atoms: _635  and  _636
REMARK  256  A    between atoms: _635  and  _638
REMARK  257  A    between atoms: _638  and  _639
REMARK  258  A    between atoms: _642  and  _644
REMARK  259  A    between atoms: _644  and  _645
REMARK  260  A    between atoms: _644  and  _647
REMARK  261  A    between atoms: _647  and  _648
REMARK  262  A    between atoms: _650  and  _652
REMARK  263  A    between atoms: _652  and  _653
REMARK  264  A    between atoms: _652  and  _655
REMARK  265  A    between atoms: _655  and  _656
REMARK  266  A    between atoms: _656  and  _657
REMARK  267  A    between atoms: _662  and  _664
REMARK  268  A    between atoms: _664  and  _665
REMARK  269  A    between atoms: _664  and  _667
REMARK  270  A    between atoms: _667  and  _668
REMARK  271  A    between atoms: _670  and  _672
REMARK  272  A    between atoms: _672  and  _673
REMARK  273  A    between atoms: _672  and  _675
REMARK  274  A    between atoms: _675  and  _676
REMARK  275  A    between atoms: _679  and  _681
REMARK  276  A    between atoms: _681  and  _682
REMARK  277  A    between atoms: _684  and  _686
REMARK  278  A    between atoms: _686  and  _687
REMARK  279  A    between atoms: _686  and  _689
REMARK  280  A    between atoms: _689  and  _690
REMARK  281  A    between atoms: _693  and  _695
REMARK  282  A    between atoms: _695  and  _696
REMARK  283  A    between atoms: _695  and  _698
REMARK  284  A    between atoms: _701  and  _703
REMARK  285  A    between atoms: _703  and  _704
REMARK  286  A    between atoms: _706  and  _708
REMARK  287  A    between atoms: _708  and  _709
REMARK  288  A    between atoms: _712  and  _714
REMARK  289  A    between atoms: _714  and  _715
REMARK  290  A    between atoms: _714  and  _717
REMARK  291  A    between atoms: _720  and  _722
REMARK  292  A    between atoms: _722  and  _723
REMARK  293  A    between atoms: _722  and  _725
REMARK  294  A    between atoms: _725  and  _726
REMARK  295  A    between atoms: _726  and  _727
REMARK  296  A    between atoms: _729  and  _731
REMARK  297  A    between atoms: _731  and  _732
REMARK  298  A    between atoms: _731  and  _734
REMARK  299  A    between atoms: _734  and  _735
REMARK  300  A    between atoms: _735  and  _736
REMARK                            x       y       z     vdW  Elec       q    Type
REMARK                         _______ _______ _______ _____ _____    ______ ____
ROOT
ATOM      1  O   HOH     1      38.027   1.973  18.610  0.00  0.00    +0.000 OA
ENDROOT
TORSDOF 0
REMARK  Name = ../refined-set-2016/4gid/4gid_pocket.pdb
REMARK  300 active torsions:
REMARK  status: ('A' for Active; 'I' for Inactive)
REMARK    1  A    between atoms: _1  and  _3
REMARK    2  A    between atoms: _3  and  _4
REMARK    3  A    between atoms: _6  and  _8
REMARK    4  A    between atoms: _8  and  _9
REMARK    5  A    between atoms: _8  and  _11
REMARK    6  A    between atoms: _11  and  _12
REMARK    7  A    between atoms: _12  and  _13
REMARK    8  A    between atoms: _13  and  _14
REMARK    9  A    between atoms: _14  and  _15
REMARK   10  A    between atoms: _19  and  _21
REMARK   11  A    between atoms: _21  and  _22
REMARK   12  A    between atoms: _21  and  _24
REMARK   13  A    between atoms: _24  and  _25
REMARK   14  A    between atoms: _27  and  _29
REMARK   15  A    between atoms: _29  and  _30
REMARK   16  A    between atoms: _32  and  _34
REMARK   17  A    between atoms: _34  and  _35
REMARK   18  A    between atoms: _34  and  _37
REMARK   19  A    between atoms: _37  and  _38
REMARK   20  A    between atoms: _38  and  _39
REMARK   21  A    between atoms: _44  and  _46
REMARK   22  A    between atoms: _46  and  _47
REMARK   23  A    between atoms: _49  and  _51
REMARK   24  A    between atoms: _51  and  _52
REMARK   25  A    between atoms: _51  and  _54
REMARK   26  A    between atoms: _54  and  _55
REMARK   27  A    between atoms: _60  and  _61
REMARK   28  A    between atoms: _63  and  _65
REMARK   29  A    between atoms: _65  and  _66
REMARK   30  A    between atoms: _65  and  _68
REMARK   31  A    between atoms: _68  and  _69
REMARK   32  A    between atoms: _74  and  _75
REMARK   33  A    between atoms: _77  and  _79
REMARK   34  A    between atoms: _79  and  _80
REMARK   35  A    between atoms: _79  and  _82
REMARK   36  A    between atoms: _82  and  _83
REMARK   37  A    between atoms: _86  and  _88
REMARK   38  A    between atoms: _88  and  _89
REMARK   39  A    between atoms: _88  and  _91
REMARK   40  A    between atoms: _94  and  _96
REMARK   41  A    between atoms: _96  and  _97
REMARK   42  A    between atoms: _96  and  _99
REMARK   43  A    between atoms: _99  and  _100
REMARK   44  A    between atoms: _103  and  _105
REMARK   45  A    between atoms: _105  and  _106
REMARK   46  A    between atoms: _105  and  _108
REMARK   47  A    between atoms: _108  and  _109
REMARK   48  A    between atoms: _112  and  _114
REMARK   49  A    between atoms: _114  and  _115
REMARK   50  A    between atoms: _117  and  _119
REMARK   51  A    between atoms: _119  and  _120
REMARK   52  A    between atoms: _119  and  _122
REMARK   53  A    between atoms: _122  and  _123
REMARK   54  A    between atoms: _125  and  _127
REMARK   55  A    between atoms: _127  and  _128
REMARK   56  A    between atoms: _127  and  _130
REMARK   57  A    between atoms: _130  and  _131
REMARK   58  A    between atoms: _133  and  _135
REMARK   59  A    between atoms: _135  and  _136
REMARK   60  A    between atoms: _135  and  _138
REMARK   61  A    between atoms: _138  and  _139
REMARK   62  A    between atoms: _144  and  _146
REMARK   63  A    between atoms: _146  and  _147
REMARK   64  A    between atoms: _146  and  _149
REMARK   65  A    between atoms: _149  and  _150
REMARK   66  A    between atoms: _155  and  _156
REMARK   67  A    between atoms: _158  and  _160
REMARK   68  A    between atoms: _160  and  _161
REMARK   69  A    between atoms: _160  and  _163
REMARK   70  A    between atoms: _167  and  _168
REMARK   71  A    between atoms: _173  and  _175
REMARK   72  A    between atoms: _175  and  _176
REMARK   73  A    between atoms: _175  and  _178
REMARK   74  A    between atoms: _178  and  _179
REMARK   75  A    between atoms: _184  and  _185
REMARK   76  A    between atoms: _187  and  _189
REMARK   77  A    between atoms: _189  and  _190
REMARK   78  A    between atoms: _189  and  _192
REMARK   79  A    between atoms: _192  and  _193
REMARK   80  A    between atoms: _196  and  _198
REMARK   81  A    between atoms: _198  and  _199
REMARK   82  A    between atoms: _198  and  _201
REMARK   83  A    between atoms: _201  and  _202
REMARK   84  A    between atoms: _202  and  _203
REMARK   85  A    between atoms: _208  and  _210
REMARK   86  A    between atoms: _210  and  _211
REMARK   87  A    between atoms: _213  and  _215
REMARK   88  A    between atoms: _215  and  _216
REMARK   89  A    between atoms: _215  and  _218
REMARK   90  A    between atoms: _218  and  _219
REMARK   91  A    between atoms: _219  and  _220
REMARK   92  A    between atoms: _220  and  _221
REMARK   93  A    between atoms: _221  and  _222
REMARK   94  A    between atoms: _226  and  _228
REMARK   95  A    between atoms: _228  and  _229
REMARK   96  A    between atoms: _228  and  _231
REMARK   97  A    between atoms: _231  and  _232
REMARK   98  A    between atoms: _242  and  _244
REMARK   99  A    between atoms: _244  and  _245
REMARK  100  A    between atoms: _244  and  _247
REMARK  101  A    between atoms: _247  and  _248
REMARK  102  A    between atoms: _251  and  _253
REMARK  103  A    between atoms: _253  and  _254
REMARK  104  A    between atoms: _253  and  _256
REMARK  105  A    between atoms: _256  and  _257
REMARK  106  A    between atoms: _257  and  _258
REMARK  107  A    between atoms: _258  and  _259
REMARK  108  A    between atoms: _259  and  _260
REMARK  109  A    between atoms: _264  and  _266
REMARK  110  A    between atoms: _266  and  _267
REMARK  111  A    between atoms: _266  and  _269
REMARK  112  A    between atoms: _269  and  _270
REMARK  113  A    between atoms: _276  and  _278
REMARK  114  A    between atoms: _278  and  _279
REMARK  115  A    between atoms: _278  and  _281
REMARK  116  A    between atoms: _281  and  _282
REMARK  117  A    between atoms: _288  and  _290
REMARK  118  A    between atoms: _290  and  _291
REMARK  119  A    between atoms: _290  and  _293
REMARK  120  A    between atoms: _293  and  _294
REMARK  121  A    between atoms: _297  and  _299
REMARK  122  A    between atoms: _299  and  _300
REMARK  123  A    between atoms: _299  and  _302
REMARK  124  A    between atoms: _302  and  _303
REMARK  125  A    between atoms: _305  and  _307
REMARK  126  A    between atoms: _307  and  _308
REMARK  127  A    between atoms: _307  and  _310
REMARK  128  A    between atoms: _310  and  _311
REMARK  129  A    between atoms: _321  and  _323
REMARK  130  A    between atoms: _323  and  _324
REMARK  131  A    between atoms: _326  and  _328
REMARK  132  A    between atoms: _328  and  _329
REMARK  133  A    between atoms: _328  and  _331
REMARK  134  A    between atoms: _331  and  _332
REMARK  135  A    between atoms: _335  and  _337
REMARK  136  A    between atoms: _337  and  _338
REMARK  137  A    between atoms: _337  and  _340
REMARK  138  A    between atoms: _340  and  _341
REMARK  139  A    between atoms: _344  and  _346
REMARK  140  A    between atoms: _346  and  _347
REMARK  141  A    between atoms: _349  and  _351
REMARK  142  A    between atoms: _351  and  _352
REMARK  143  A    between atoms: _355  and  _357
REMARK  144  A    between atoms: _357  and  _358
REMARK  145  A    between atoms: _357  and  _360
REMARK  146  A    between atoms: _360  and  _361
REMARK  147  A    between atoms: _366  and  _367
REMARK  148  A    between atoms: _369  and  _371
REMARK  149  A    between atoms: _371  and  _372
REMARK  150  A    between atoms: _371  and  _374
REMARK  151  A    between atoms: _374  and  _375
REMARK  152  A    between atoms: _375  and  _376
REMARK  153  A    between atoms: _379  and  _381
REMARK  154  A    between atoms: _381  and  _382
REMARK  155  A    between atoms: _381  and  _384
REMARK  156  A    between atoms: _384  and  _385
REMARK  157  A    between atoms: _388  and  _390
REMARK  158  A    between atoms: _390  and  _391
REMARK  159  A    between atoms: _394  and  _396
REMARK  160  A    between atoms: _396  and  _397
REMARK  161  A    between atoms: _396  and  _399
REMARK  162  A    between atoms: _399  and  _400
REMARK  163  A    between atoms: _400  and  _401
REMARK  164  A    between atoms: _401  and  _402
REMARK  165  A    between atoms: _411  and  _413
REMARK  166  A    between atoms: _413  and  _414
REMARK  167  A    between atoms: _413  and  _416
REMARK  168  A    between atoms: _416  and  _417
REMARK  169  A    between atoms: _420  and  _422
REMARK  170  A    between atoms: _422  and  _423
REMARK  171  A    between atoms: _422  and  _425
REMARK  172  A    between atoms: _425  and  _426
REMARK  173  A    between atoms: _436  and  _438
REMARK  174  A    between atoms: _438  and  _439
REMARK  175  A    between atoms: _438  and  _441
REMARK  176  A    between atoms: _441  and  _442
REMARK  177  A    between atoms: _447  and  _448
REMARK  178  A    between atoms: _450  and  _452
REMARK  179  A    between atoms: _452  and  _453
REMARK  180  A    between atoms: _452  and  _455
REMARK  181  A    between atoms: _455  and  _456
REMARK  182  A    between atoms: _461  and  _462
REMARK  183  A    between atoms: _464  and  _466
REMARK  184  A    between atoms: _466  and  _467
REMARK  185  A    between atoms: _466  and  _469
REMARK  186  A    between atoms: _469  and  _470
REMARK  187  A    between atoms: _470  and  _471
REMARK  188  A    between atoms: _471  and  _472
REMARK  189  A    between atoms: _472  and  _473
REMARK  190  A    between atoms: _477  and  _479
REMARK  191  A    between atoms: _479  and  _480
REMARK  192  A    between atoms: _479  and  _482
REMARK  193  A    between atoms: _482  and  _483
REMARK  194  A    between atoms: _486  and  _488
REMARK  195  A    between atoms: _488  and  _489
REMARK  196  A    between atoms: _488  and  _491
REMARK  197  A    between atoms: _494  and  _496
REMARK  198  A    between atoms: _496  and  _497
REMARK  199  A    between atoms: _496  and  _499
REMARK  200  A    between atoms: _499  and  _500
REMARK  201  A    between atoms: _503  and  _505
REMARK  202  A    between atoms: _505  and  _506
REMARK  203  A    between atoms: _505  and  _508
REMARK  204  A    between atoms: _508  and  _509
REMARK  205  A    between atoms: _511  and  _513
REMARK  206  A    between atoms: _513  and  _514
REMARK  207  A    between atoms: _516  and  _518
REMARK  208  A    between atoms: _518  and  _519
REMARK  209  A    between atoms: _518  and  _521
REMARK  210  A    between atoms: _521  and  _522
REMARK  211  A    between atoms: _525  and  _527
REMARK  212  A    between atoms: _527  and  _528
REMARK  213  A    between atoms: _527  and  _530
REMARK  214  A    between atoms: _530  and  _531
REMARK  215  A    between atoms: _534  and  _536
REMARK  216  A    between atoms: _536  and  _537
REMARK  217  A    between atoms: _536  and  _539
REMARK  218  A    between atoms: _539  and  _540
REMARK  219  A    between atoms: _545  and  _547
REMARK  220  A    between atoms: _547  and  _548
REMARK  221  A    between atoms: _547  and  _550
REMARK  222  A    between atoms: _550  and  _551
REMARK  223  A    between atoms: _554  and  _556
REMARK  224  A    between atoms: _556  and  _557
REMARK  225  A    between atoms: _556  and  _559
REMARK  226  A    between atoms: _559  and  _560
REMARK  227  A    between atoms: _560  and  _561
REMARK  228  A    between atoms: _561  and  _562
REMARK  229  A    between atoms: _571  and  _573
REMARK  230  A    between atoms: _573  and  _574
REMARK  231  A    between atoms: _573  and  _576
REMARK  232  A    between atoms: _576  and  _577
REMARK  233  A    between atoms: _580  and  _582
REMARK  234  A    between atoms: _582  and  _583
REMARK  235  A    between atoms: _585  and  _587
REMARK  236  A    between atoms: _587  and  _588
REMARK  237  A    between atoms: _587  and  _590
REMARK  238  A    between atoms: _590  and  _591
REMARK  239  A    between atoms: _591  and  _592
REMARK  240  A    between atoms: _592  and  _593
REMARK  241  A    between atoms: _602  and  _604
REMARK  242  A    between atoms: _604  and  _605
REMARK  243  A    between atoms: _604  and  _607
REMARK  244  A    between atoms: _607  and  _608
REMARK  245  A    between atoms: _608  and  _609
REMARK  246  A    between atoms: _609  and  _610
REMARK  247  A    between atoms: _610  and  _611
REMARK  248  A    between atoms: _615  and  _617
REMARK  249  A    between atoms: _617  and  _618
REMARK  250  A    between atoms: _617  and  _620
REMARK  251  A    between atoms: _620  and  _621
REMARK  252  A    between atoms: _627  and  _629
REMARK  253  A    between atoms: _629  and  _630
REMARK  254  A    between atoms: _633  and  _635
REMARK  255  A    between atoms: _635  and  _636
REMARK  256  A    between atoms: _635  and  _638
REMARK  257  A    between atoms: _638  and  _639
REMARK  258  A    between atoms: _642  and  _644
REMARK  259  A    between atoms: _644  and  _645
REMARK  260  A    between atoms: _644  and  _647
REMARK  261  A    between atoms: _647  and  _648
REMARK  262  A    between atoms: _650  and  _652
REMARK  263  A    between atoms: _652  and  _653
REMARK  264  A    between atoms: _652  and  _655
REMARK  265  A    between atoms: _655  and  _656
REMARK  266  A    between atoms: _656  and  _657
REMARK  267  A    between atoms: _662  and  _664
REMARK  268  A    between atoms: _664  and  _665
REMARK  269  A    between atoms: _664  and  _667
REMARK  270  A    between atoms: _667  and  _668
REMARK  271  A    between atoms: _670  and  _672
REMARK  272  A    between atoms: _672  and  _673
REMARK  273  A    between atoms: _672  and  _675
REMARK  274  A    between atoms: _675  and  _676
REMARK  275  A    between atoms: _679  and  _681
REMARK  276  A    between atoms: _681  and  _682
REMARK  277  A    between atoms: _684  and  _686
REMARK  278  A    between atoms: _686  and  _687
REMARK  279  A    between atoms: _686  and  _689
REMARK  280  A    between atoms: _689  and  _690
REMARK  281  A    between atoms: _693  and  _695
REMARK  282  A    between atoms: _695  and  _696
REMARK  283  A    between atoms: _695  and  _698
REMARK  284  A    between atoms: _701  and  _703
REMARK  285  A    between atoms: _703  and  _704
REMARK  286  A    between atoms: _706  and  _708
REMARK  287  A    between atoms: _708  and  _709
REMARK  288  A    between atoms: _712  and  _714
REMARK  289  A    between atoms: _714  and  _715
REMARK  290  A    between atoms: _714  and  _717
REMARK  291  A    between atoms: _720  and  _722
REMARK  292  A    between atoms: _722  and  _723
REMARK  293  A    between atoms: _722  and  _725
REMARK  294  A    between atoms: _725  and  _726
REMARK  295  A    between atoms: _726  and  _727
REMARK  296  A    between atoms: _729  and  _731
REMARK  297  A    between atoms: _731  and  _732
REMARK  298  A    between atoms: _731  and  _734
REMARK  299  A    between atoms: _734  and  _735
REMARK  300  A    between atoms: _735  and  _736
REMARK                            x       y       z     vdW  Elec       q    Type
REMARK                         _______ _______ _______ _____ _____    ______ ____
ROOT
ATOM      1  O   HOH     1      44.304   2.234  18.604  0.00  0.00    +0.000 OA
ENDROOT
TORSDOF 0
REMARK  Name = ../refined-set-2016/4gid/4gid_pocket.pdb
REMARK  300 active torsions:
REMARK  status: ('A' for Active; 'I' for Inactive)
REMARK    1  A    between atoms: _1  and  _3
REMARK    2  A    between atoms: _3  and  _4
REMARK    3  A    between atoms: _6  and  _8
REMARK    4  A    between atoms: _8  and  _9
REMARK    5  A    between atoms: _8  and  _11
REMARK    6  A    between atoms: _11  and  _12
REMARK    7  A    between atoms: _12  and  _13
REMARK    8  A    between atoms: _13  and  _14
REMARK    9  A    between atoms: _14  and  _15
REMARK   10  A    between atoms: _19  and  _21
REMARK   11  A    between atoms: _21  and  _22
REMARK   12  A    between atoms: _21  and  _24
REMARK   13  A    between atoms: _24  and  _25
REMARK   14  A    between atoms: _27  and  _29
REMARK   15  A    between atoms: _29  and  _30
REMARK   16  A    between atoms: _32  and  _34
REMARK   17  A    between atoms: _34  and  _35
REMARK   18  A    between atoms: _34  and  _37
REMARK   19  A    between atoms: _37  and  _38
REMARK   20  A    between atoms: _38  and  _39
REMARK   21  A    between atoms: _44  and  _46
REMARK   22  A    between atoms: _46  and  _47
REMARK   23  A    between atoms: _49  and  _51
REMARK   24  A    between atoms: _51  and  _52
REMARK   25  A    between atoms: _51  and  _54
REMARK   26  A    between atoms: _54  and  _55
REMARK   27  A    between atoms: _60  and  _61
REMARK   28  A    between atoms: _63  and  _65
REMARK   29  A    between atoms: _65  and  _66
REMARK   30  A    between atoms: _65  and  _68
REMARK   31  A    between atoms: _68  and  _69
REMARK   32  A    between atoms: _74  and  _75
REMARK   33  A    between atoms: _77  and  _79
REMARK   34  A    between atoms: _79  and  _80
REMARK   35  A    between atoms: _79  and  _82
REMARK   36  A    between atoms: _82  and  _83
REMARK   37  A    between atoms: _86  and  _88
REMARK   38  A    between atoms: _88  and  _89
REMARK   39  A    between atoms: _88  and  _91
REMARK   40  A    between atoms: _94  and  _96
REMARK   41  A    between atoms: _96  and  _97
REMARK   42  A    between atoms: _96  and  _99
REMARK   43  A    between atoms: _99  and  _100
REMARK   44  A    between atoms: _103  and  _105
REMARK   45  A    between atoms: _105  and  _106
REMARK   46  A    between atoms: _105  and  _108
REMARK   47  A    between atoms: _108  and  _109
REMARK   48  A    between atoms: _112  and  _114
REMARK   49  A    between atoms: _114  and  _115
REMARK   50  A    between atoms: _117  and  _119
REMARK   51  A    between atoms: _119  and  _120
REMARK   52  A    between atoms: _119  and  _122
REMARK   53  A    between atoms: _122  and  _123
REMARK   54  A    between atoms: _125  and  _127
REMARK   55  A    between atoms: _127  and  _128
REMARK   56  A    between atoms: _127  and  _130
REMARK   57  A    between atoms: _130  and  _131
REMARK   58  A    between atoms: _133  and  _135
REMARK   59  A    between atoms: _135  and  _136
REMARK   60  A    between atoms: _135  and  _138
REMARK   61  A    between atoms: _138  and  _139
REMARK   62  A    between atoms: _144  and  _146
REMARK   63  A    between atoms: _146  and  _147
REMARK   64  A    between atoms: _146  and  _149
REMARK   65  A    between atoms: _149  and  _150
REMARK   66  A    between atoms: _155  and  _156
REMARK   67  A    between atoms: _158  and  _160
REMARK   68  A    between atoms: _160  and  _161
REMARK   69  A    between atoms: _160  and  _163
REMARK   70  A    between atoms: _167  and  _168
REMARK   71  A    between atoms: _173  and  _175
REMARK   72  A    between atoms: _175  and  _176
REMARK   73  A    between atoms: _175  and  _178
REMARK   74  A    between atoms: _178  and  _179
REMARK   75  A    between atoms: _184  and  _185
REMARK   76  A    between atoms: _187  and  _189
REMARK   77  A    between atoms: _189  and  _190
REMARK   78  A    between atoms: _189  and  _192
REMARK   79  A    between atoms: _192  and  _193
REMARK   80  A    between atoms: _196  and  _198
REMARK   81  A    between atoms: _198  and  _199
REMARK   82  A    between atoms: _198  and  _201
REMARK   83  A    between atoms: _201  and  _202
REMARK   84  A    between atoms: _202  and  _203
REMARK   85  A    between atoms: _208  and  _210
REMARK   86  A    between atoms: _210  and  _211
REMARK   87  A    between atoms: _213  and  _215
REMARK   88  A    between atoms: _215  and  _216
REMARK   89  A    between atoms: _215  and  _218
REMARK   90  A    between atoms: _218  and  _219
REMARK   91  A    between atoms: _219  and  _220
REMARK   92  A    between atoms: _220  and  _221
REMARK   93  A    between atoms: _221  and  _222
REMARK   94  A    between atoms: _226  and  _228
REMARK   95  A    between atoms: _228  and  _229
REMARK   96  A    between atoms: _228  and  _231
REMARK   97  A    between atoms: _231  and  _232
REMARK   98  A    between atoms: _242  and  _244
REMARK   99  A    between atoms: _244  and  _245
REMARK  100  A    between atoms: _244  and  _247
REMARK  101  A    between atoms: _247  and  _248
REMARK  102  A    between atoms: _251  and  _253
REMARK  103  A    between atoms: _253  and  _254
REMARK  104  A    between atoms: _253  and  _256
REMARK  105  A    between atoms: _256  and  _257
REMARK  106  A    between atoms: _257  and  _258
REMARK  107  A    between atoms: _258  and  _259
REMARK  108  A    between atoms: _259  and  _260
REMARK  109  A    between atoms: _264  and  _266
REMARK  110  A    between atoms: _266  and  _267
REMARK  111  A    between atoms: _266  and  _269
REMARK  112  A    between atoms: _269  and  _270
REMARK  113  A    between atoms: _276  and  _278
REMARK  114  A    between atoms: _278  and  _279
REMARK  115  A    between atoms: _278  and  _281
REMARK  116  A    between atoms: _281  and  _282
REMARK  117  A    between atoms: _288  and  _290
REMARK  118  A    between atoms: _290  and  _291
REMARK  119  A    between atoms: _290  and  _293
REMARK  120  A    between atoms: _293  and  _294
REMARK  121  A    between atoms: _297  and  _299
REMARK  122  A    between atoms: _299  and  _300
REMARK  123  A    between atoms: _299  and  _302
REMARK  124  A    between atoms: _302  and  _303
REMARK  125  A    between atoms: _305  and  _307
REMARK  126  A    between atoms: _307  and  _308
REMARK  127  A    between atoms: _307  and  _310
REMARK  128  A    between atoms: _310  and  _311
REMARK  129  A    between atoms: _321  and  _323
REMARK  130  A    between atoms: _323  and  _324
REMARK  131  A    between atoms: _326  and  _328
REMARK  132  A    between atoms: _328  and  _329
REMARK  133  A    between atoms: _328  and  _331
REMARK  134  A    between atoms: _331  and  _332
REMARK  135  A    between atoms: _335  and  _337
REMARK  136  A    between atoms: _337  and  _338
REMARK  137  A    between atoms: _337  and  _340
REMARK  138  A    between atoms: _340  and  _341
REMARK  139  A    between atoms: _344  and  _346
REMARK  140  A    between atoms: _346  and  _347
REMARK  141  A    between atoms: _349  and  _351
REMARK  142  A    between atoms: _351  and  _352
REMARK  143  A    between atoms: _355  and  _357
REMARK  144  A    between atoms: _357  and  _358
REMARK  145  A    between atoms: _357  and  _360
REMARK  146  A    between atoms: _360  and  _361
REMARK  147  A    between atoms: _366  and  _367
REMARK  148  A    between atoms: _369  and  _371
REMARK  149  A    between atoms: _371  and  _372
REMARK  150  A    between atoms: _371  and  _374
REMARK  151  A    between atoms: _374  and  _375
REMARK  152  A    between atoms: _375  and  _376
REMARK  153  A    between atoms: _379  and  _381
REMARK  154  A    between atoms: _381  and  _382
REMARK  155  A    between atoms: _381  and  _384
REMARK  156  A    between atoms: _384  and  _385
REMARK  157  A    between atoms: _388  and  _390
REMARK  158  A    between atoms: _390  and  _391
REMARK  159  A    between atoms: _394  and  _396
REMARK  160  A    between atoms: _396  and  _397
REMARK  161  A    between atoms: _396  and  _399
REMARK  162  A    between atoms: _399  and  _400
REMARK  163  A    between atoms: _400  and  _401
REMARK  164  A    between atoms: _401  and  _402
REMARK  165  A    between atoms: _411  and  _413
REMARK  166  A    between atoms: _413  and  _414
REMARK  167  A    between atoms: _413  and  _416
REMARK  168  A    between atoms: _416  and  _417
REMARK  169  A    between atoms: _420  and  _422
REMARK  170  A    between atoms: _422  and  _423
REMARK  171  A    between atoms: _422  and  _425
REMARK  172  A    between atoms: _425  and  _426
REMARK  173  A    between atoms: _436  and  _438
REMARK  174  A    between atoms: _438  and  _439
REMARK  175  A    between atoms: _438  and  _441
REMARK  176  A    between atoms: _441  and  _442
REMARK  177  A    between atoms: _447  and  _448
REMARK  178  A    between atoms: _450  and  _452
REMARK  179  A    between atoms: _452  and  _453
REMARK  180  A    between atoms: _452  and  _455
REMARK  181  A    between atoms: _455  and  _456
REMARK  182  A    between atoms: _461  and  _462
REMARK  183  A    between atoms: _464  and  _466
REMARK  184  A    between atoms: _466  and  _467
REMARK  185  A    between atoms: _466  and  _469
REMARK  186  A    between atoms: _469  and  _470
REMARK  187  A    between atoms: _470  and  _471
REMARK  188  A    between atoms: _471  and  _472
REMARK  189  A    between atoms: _472  and  _473
REMARK  190  A    between atoms: _477  and  _479
REMARK  191  A    between atoms: _479  and  _480
REMARK  192  A    between atoms: _479  and  _482
REMARK  193  A    between atoms: _482  and  _483
REMARK  194  A    between atoms: _486  and  _488
REMARK  195  A    between atoms: _488  and  _489
REMARK  196  A    between atoms: _488  and  _491
REMARK  197  A    between atoms: _494  and  _496
REMARK  198  A    between atoms: _496  and  _497
REMARK  199  A    between atoms: _496  and  _499
REMARK  200  A    between atoms: _499  and  _500
REMARK  201  A    between atoms: _503  and  _505
REMARK  202  A    between atoms: _505  and  _506
REMARK  203  A    between atoms: _505  and  _508
REMARK  204  A    between atoms: _508  and  _509
REMARK  205  A    between atoms: _511  and  _513
REMARK  206  A    between atoms: _513  and  _514
REMARK  207  A    between atoms: _516  and  _518
REMARK  208  A    between atoms: _518  and  _519
REMARK  209  A    between atoms: _518  and  _521
REMARK  210  A    between atoms: _521  and  _522
REMARK  211  A    between atoms: _525  and  _527
REMARK  212  A    between atoms: _527  and  _528
REMARK  213  A    between atoms: _527  and  _530
REMARK  214  A    between atoms: _530  and  _531
REMARK  215  A    between atoms: _534  and  _536
REMARK  216  A    between atoms: _536  and  _537
REMARK  217  A    between atoms: _536  and  _539
REMARK  218  A    between atoms: _539  and  _540
REMARK  219  A    between atoms: _545  and  _547
REMARK  220  A    between atoms: _547  and  _548
REMARK  221  A    between atoms: _547  and  _550
REMARK  222  A    between atoms: _550  and  _551
REMARK  223  A    between atoms: _554  and  _556
REMARK  224  A    between atoms: _556  and  _557
REMARK  225  A    between atoms: _556  and  _559
REMARK  226  A    between atoms: _559  and  _560
REMARK  227  A    between atoms: _560  and  _561
REMARK  228  A    between atoms: _561  and  _562
REMARK  229  A    between atoms: _571  and  _573
REMARK  230  A    between atoms: _573  and  _574
REMARK  231  A    between atoms: _573  and  _576
REMARK  232  A    between atoms: _576  and  _577
REMARK  233  A    between atoms: _580  and  _582
REMARK  234  A    between atoms: _582  and  _583
REMARK  235  A    between atoms: _585  and  _587
REMARK  236  A    between atoms: _587  and  _588
REMARK  237  A    between atoms: _587  and  _590
REMARK  238  A    between atoms: _590  and  _591
REMARK  239  A    between atoms: _591  and  _592
REMARK  240  A    between atoms: _592  and  _593
REMARK  241  A    between atoms: _602  and  _604
REMARK  242  A    between atoms: _604  and  _605
REMARK  243  A    between atoms: _604  and  _607
REMARK  244  A    between atoms: _607  and  _608
REMARK  245  A    between atoms: _608  and  _609
REMARK  246  A    between atoms: _609  and  _610
REMARK  247  A    between atoms: _610  and  _611
REMARK  248  A    between atoms: _615  and  _617
REMARK  249  A    between atoms: _617  and  _618
REMARK  250  A    between atoms: _617  and  _620
REMARK  251  A    between atoms: _620  and  _621
REMARK  252  A    between atoms: _627  and  _629
REMARK  253  A    between atoms: _629  and  _630
REMARK  254  A    between atoms: _633  and  _635
REMARK  255  A    between atoms: _635  and  _636
REMARK  256  A    between atoms: _635  and  _638
REMARK  257  A    between atoms: _638  and  _639
REMARK  258  A    between atoms: _642  and  _644
REMARK  259  A    between atoms: _644  and  _645
REMARK  260  A    between atoms: _644  and  _647
REMARK  261  A    between atoms: _647  and  _648
REMARK  262  A    between atoms: _650  and  _652
REMARK  263  A    between atoms: _652  and  _653
REMARK  264  A    between atoms: _652  and  _655
REMARK  265  A    between atoms: _655  and  _656
REMARK  266  A    between atoms: _656  and  _657
REMARK  267  A    between atoms: _662  and  _664
REMARK  268  A    between atoms: _664  and  _665
REMARK  269  A    between atoms: _664  and  _667
REMARK  270  A    between atoms: _667  and  _668
REMARK  271  A    between atoms: _670  and  _672
REMARK  272  A    between atoms: _672  and  _673
REMARK  273  A    between atoms: _672  and  _675
REMARK  274  A    between atoms: _675  and  _676
REMARK  275  A    between atoms: _679  and  _681
REMARK  276  A    between atoms: _681  and  _682
REMARK  277  A    between atoms: _684  and  _686
REMARK  278  A    between atoms: _686  and  _687
REMARK  279  A    between atoms: _686  and  _689
REMARK  280  A    between atoms: _689  and  _690
REMARK  281  A    between atoms: _693  and  _695
REMARK  282  A    between atoms: _695  and  _696
REMARK  283  A    between atoms: _695  and  _698
REMARK  284  A    between atoms: _701  and  _703
REMARK  285  A    between atoms: _703  and  _704
REMARK  286  A    between atoms: _706  and  _708
REMARK  287  A    between atoms: _708  and  _709
REMARK  288  A    between atoms: _712  and  _714
REMARK  289  A    between atoms: _714  and  _715
REMARK  290  A    between atoms: _714  and  _717
REMARK  291  A    between atoms: _720  and  _722
REMARK  292  A    between atoms: _722  and  _723
REMARK  293  A    between atoms: _722  and  _725
REMARK  294  A    between atoms: _725  and  _726
REMARK  295  A    between atoms: _726  and  _727
REMARK  296  A    between atoms: _729  and  _731
REMARK  297  A    between atoms: _731  and  _732
REMARK  298  A    between atoms: _731  and  _734
REMARK  299  A    between atoms: _734  and  _735
REMARK  300  A    between atoms: _735  and  _736
REMARK                            x       y       z     vdW  Elec       q    Type
REMARK                         _______ _______ _______ _____ _____    ______ ____
ROOT
ATOM      1  O   HOH     1      36.938 -14.762   8.956  0.00  0.00    +0.000 OA
ENDROOT
TORSDOF 0
REMARK  Name = ../refined-set-2016/4gid/4gid_pocket.pdb
REMARK  300 active torsions:
REMARK  status: ('A' for Active; 'I' for Inactive)
REMARK    1  A    between atoms: _1  and  _3
REMARK    2  A    between atoms: _3  and  _4
REMARK    3  A    between atoms: _6  and  _8
REMARK    4  A    between atoms: _8  and  _9
REMARK    5  A    between atoms: _8  and  _11
REMARK    6  A    between atoms: _11  and  _12
REMARK    7  A    between atoms: _12  and  _13
REMARK    8  A    between atoms: _13  and  _14
REMARK    9  A    between atoms: _14  and  _15
REMARK   10  A    between atoms: _19  and  _21
REMARK   11  A    between atoms: _21  and  _22
REMARK   12  A    between atoms: _21  and  _24
REMARK   13  A    between atoms: _24  and  _25
REMARK   14  A    between atoms: _27  and  _29
REMARK   15  A    between atoms: _29  and  _30
REMARK   16  A    between atoms: _32  and  _34
REMARK   17  A    between atoms: _34  and  _35
REMARK   18  A    between atoms: _34  and  _37
REMARK   19  A    between atoms: _37  and  _38
REMARK   20  A    between atoms: _38  and  _39
REMARK   21  A    between atoms: _44  and  _46
REMARK   22  A    between atoms: _46  and  _47
REMARK   23  A    between atoms: _49  and  _51
REMARK   24  A    between atoms: _51  and  _52
REMARK   25  A    between atoms: _51  and  _54
REMARK   26  A    between atoms: _54  and  _55
REMARK   27  A    between atoms: _60  and  _61
REMARK   28  A    between atoms: _63  and  _65
REMARK   29  A    between atoms: _65  and  _66
REMARK   30  A    between atoms: _65  and  _68
REMARK   31  A    between atoms: _68  and  _69
REMARK   32  A    between atoms: _74  and  _75
REMARK   33  A    between atoms: _77  and  _79
REMARK   34  A    between atoms: _79  and  _80
REMARK   35  A    between atoms: _79  and  _82
REMARK   36  A    between atoms: _82  and  _83
REMARK   37  A    between atoms: _86  and  _88
REMARK   38  A    between atoms: _88  and  _89
REMARK   39  A    between atoms: _88  and  _91
REMARK   40  A    between atoms: _94  and  _96
REMARK   41  A    between atoms: _96  and  _97
REMARK   42  A    between atoms: _96  and  _99
REMARK   43  A    between atoms: _99  and  _100
REMARK   44  A    between atoms: _103  and  _105
REMARK   45  A    between atoms: _105  and  _106
REMARK   46  A    between atoms: _105  and  _108
REMARK   47  A    between atoms: _108  and  _109
REMARK   48  A    between atoms: _112  and  _114
REMARK   49  A    between atoms: _114  and  _115
REMARK   50  A    between atoms: _117  and  _119
REMARK   51  A    between atoms: _119  and  _120
REMARK   52  A    between atoms: _119  and  _122
REMARK   53  A    between atoms: _122  and  _123
REMARK   54  A    between atoms: _125  and  _127
REMARK   55  A    between atoms: _127  and  _128
REMARK   56  A    between atoms: _127  and  _130
REMARK   57  A    between atoms: _130  and  _131
REMARK   58  A    between atoms: _133  and  _135
REMARK   59  A    between atoms: _135  and  _136
REMARK   60  A    between atoms: _135  and  _138
REMARK   61  A    between atoms: _138  and  _139
REMARK   62  A    between atoms: _144  and  _146
REMARK   63  A    between atoms: _146  and  _147
REMARK   64  A    between atoms: _146  and  _149
REMARK   65  A    between atoms: _149  and  _150
REMARK   66  A    between atoms: _155  and  _156
REMARK   67  A    between atoms: _158  and  _160
REMARK   68  A    between atoms: _160  and  _161
REMARK   69  A    between atoms: _160  and  _163
REMARK   70  A    between atoms: _167  and  _168
REMARK   71  A    between atoms: _173  and  _175
REMARK   72  A    between atoms: _175  and  _176
REMARK   73  A    between atoms: _175  and  _178
REMARK   74  A    between atoms: _178  and  _179
REMARK   75  A    between atoms: _184  and  _185
REMARK   76  A    between atoms: _187  and  _189
REMARK   77  A    between atoms: _189  and  _190
REMARK   78  A    between atoms: _189  and  _192
REMARK   79  A    between atoms: _192  and  _193
REMARK   80  A    between atoms: _196  and  _198
REMARK   81  A    between atoms: _198  and  _199
REMARK   82  A    between atoms: _198  and  _201
REMARK   83  A    between atoms: _201  and  _202
REMARK   84  A    between atoms: _202  and  _203
REMARK   85  A    between atoms: _208  and  _210
REMARK   86  A    between atoms: _210  and  _211
REMARK   87  A    between atoms: _213  and  _215
REMARK   88  A    between atoms: _215  and  _216
REMARK   89  A    between atoms: _215  and  _218
REMARK   90  A    between atoms: _218  and  _219
REMARK   91  A    between atoms: _219  and  _220
REMARK   92  A    between atoms: _220  and  _221
REMARK   93  A    between atoms: _221  and  _222
REMARK   94  A    between atoms: _226  and  _228
REMARK   95  A    between atoms: _228  and  _229
REMARK   96  A    between atoms: _228  and  _231
REMARK   97  A    between atoms: _231  and  _232
REMARK   98  A    between atoms: _242  and  _244
REMARK   99  A    between atoms: _244  and  _245
REMARK  100  A    between atoms: _244  and  _247
REMARK  101  A    between atoms: _247  and  _248
REMARK  102  A    between atoms: _251  and  _253
REMARK  103  A    between atoms: _253  and  _254
REMARK  104  A    between atoms: _253  and  _256
REMARK  105  A    between atoms: _256  and  _257
REMARK  106  A    between atoms: _257  and  _258
REMARK  107  A    between atoms: _258  and  _259
REMARK  108  A    between atoms: _259  and  _260
REMARK  109  A    between atoms: _264  and  _266
REMARK  110  A    between atoms: _266  and  _267
REMARK  111  A    between atoms: _266  and  _269
REMARK  112  A    between atoms: _269  and  _270
REMARK  113  A    between atoms: _276  and  _278
REMARK  114  A    between atoms: _278  and  _279
REMARK  115  A    between atoms: _278  and  _281
REMARK  116  A    between atoms: _281  and  _282
REMARK  117  A    between atoms: _288  and  _290
REMARK  118  A    between atoms: _290  and  _291
REMARK  119  A    between atoms: _290  and  _293
REMARK  120  A    between atoms: _293  and  _294
REMARK  121  A    between atoms: _297  and  _299
REMARK  122  A    between atoms: _299  and  _300
REMARK  123  A    between atoms: _299  and  _302
REMARK  124  A    between atoms: _302  and  _303
REMARK  125  A    between atoms: _305  and  _307
REMARK  126  A    between atoms: _307  and  _308
REMARK  127  A    between atoms: _307  and  _310
REMARK  128  A    between atoms: _310  and  _311
REMARK  129  A    between atoms: _321  and  _323
REMARK  130  A    between atoms: _323  and  _324
REMARK  131  A    between atoms: _326  and  _328
REMARK  132  A    between atoms: _328  and  _329
REMARK  133  A    between atoms: _328  and  _331
REMARK  134  A    between atoms: _331  and  _332
REMARK  135  A    between atoms: _335  and  _337
REMARK  136  A    between atoms: _337  and  _338
REMARK  137  A    between atoms: _337  and  _340
REMARK  138  A    between atoms: _340  and  _341
REMARK  139  A    between atoms: _344  and  _346
REMARK  140  A    between atoms: _346  and  _347
REMARK  141  A    between atoms: _349  and  _351
REMARK  142  A    between atoms: _351  and  _352
REMARK  143  A    between atoms: _355  and  _357
REMARK  144  A    between atoms: _357  and  _358
REMARK  145  A    between atoms: _357  and  _360
REMARK  146  A    between atoms: _360  and  _361
REMARK  147  A    between atoms: _366  and  _367
REMARK  148  A    between atoms: _369  and  _371
REMARK  149  A    between atoms: _371  and  _372
REMARK  150  A    between atoms: _371  and  _374
REMARK  151  A    between atoms: _374  and  _375
REMARK  152  A    between atoms: _375  and  _376
REMARK  153  A    between atoms: _379  and  _381
REMARK  154  A    between atoms: _381  and  _382
REMARK  155  A    between atoms: _381  and  _384
REMARK  156  A    between atoms: _384  and  _385
REMARK  157  A    between atoms: _388  and  _390
REMARK  158  A    between atoms: _390  and  _391
REMARK  159  A    between atoms: _394  and  _396
REMARK  160  A    between atoms: _396  and  _397
REMARK  161  A    between atoms: _396  and  _399
REMARK  162  A    between atoms: _399  and  _400
REMARK  163  A    between atoms: _400  and  _401
REMARK  164  A    between atoms: _401  and  _402
REMARK  165  A    between atoms: _411  and  _413
REMARK  166  A    between atoms: _413  and  _414
REMARK  167  A    between atoms: _413  and  _416
REMARK  168  A    between atoms: _416  and  _417
REMARK  169  A    between atoms: _420  and  _422
REMARK  170  A    between atoms: _422  and  _423
REMARK  171  A    between atoms: _422  and  _425
REMARK  172  A    between atoms: _425  and  _426
REMARK  173  A    between atoms: _436  and  _438
REMARK  174  A    between atoms: _438  and  _439
REMARK  175  A    between atoms: _438  and  _441
REMARK  176  A    between atoms: _441  and  _442
REMARK  177  A    between atoms: _447  and  _448
REMARK  178  A    between atoms: _450  and  _452
REMARK  179  A    between atoms: _452  and  _453
REMARK  180  A    between atoms: _452  and  _455
REMARK  181  A    between atoms: _455  and  _456
REMARK  182  A    between atoms: _461  and  _462
REMARK  183  A    between atoms: _464  and  _466
REMARK  184  A    between atoms: _466  and  _467
REMARK  185  A    between atoms: _466  and  _469
REMARK  186  A    between atoms: _469  and  _470
REMARK  187  A    between atoms: _470  and  _471
REMARK  188  A    between atoms: _471  and  _472
REMARK  189  A    between atoms: _472  and  _473
REMARK  190  A    between atoms: _477  and  _479
REMARK  191  A    between atoms: _479  and  _480
REMARK  192  A    between atoms: _479  and  _482
REMARK  193  A    between atoms: _482  and  _483
REMARK  194  A    between atoms: _486  and  _488
REMARK  195  A    between atoms: _488  and  _489
REMARK  196  A    between atoms: _488  and  _491
REMARK  197  A    between atoms: _494  and  _496
REMARK  198  A    between atoms: _496  and  _497
REMARK  199  A    between atoms: _496  and  _499
REMARK  200  A    between atoms: _499  and  _500
REMARK  201  A    between atoms: _503  and  _505
REMARK  202  A    between atoms: _505  and  _506
REMARK  203  A    between atoms: _505  and  _508
REMARK  204  A    between atoms: _508  and  _509
REMARK  205  A    between atoms: _511  and  _513
REMARK  206  A    between atoms: _513  and  _514
REMARK  207  A    between atoms: _516  and  _518
REMARK  208  A    between atoms: _518  and  _519
REMARK  209  A    between atoms: _518  and  _521
REMARK  210  A    between atoms: _521  and  _522
REMARK  211  A    between atoms: _525  and  _527
REMARK  212  A    between atoms: _527  and  _528
REMARK  213  A    between atoms: _527  and  _530
REMARK  214  A    between atoms: _530  and  _531
REMARK  215  A    between atoms: _534  and  _536
REMARK  216  A    between atoms: _536  and  _537
REMARK  217  A    between atoms: _536  and  _539
REMARK  218  A    between atoms: _539  and  _540
REMARK  219  A    between atoms: _545  and  _547
REMARK  220  A    between atoms: _547  and  _548
REMARK  221  A    between atoms: _547  and  _550
REMARK  222  A    between atoms: _550  and  _551
REMARK  223  A    between atoms: _554  and  _556
REMARK  224  A    between atoms: _556  and  _557
REMARK  225  A    between atoms: _556  and  _559
REMARK  226  A    between atoms: _559  and  _560
REMARK  227  A    between atoms: _560  and  _561
REMARK  228  A    between atoms: _561  and  _562
REMARK  229  A    between atoms: _571  and  _573
REMARK  230  A    between atoms: _573  and  _574
REMARK  231  A    between atoms: _573  and  _576
REMARK  232  A    between atoms: _576  and  _577
REMARK  233  A    between atoms: _580  and  _582
REMARK  234  A    between atoms: _582  and  _583
REMARK  235  A    between atoms: _585  and  _587
REMARK  236  A    between atoms: _587  and  _588
REMARK  237  A    between atoms: _587  and  _590
REMARK  238  A    between atoms: _590  and  _591
REMARK  239  A    between atoms: _591  and  _592
REMARK  240  A    between atoms: _592  and  _593
REMARK  241  A    between atoms: _602  and  _604
REMARK  242  A    between atoms: _604  and  _605
REMARK  243  A    between atoms: _604  and  _607
REMARK  244  A    between atoms: _607  and  _608
REMARK  245  A    between atoms: _608  and  _609
REMARK  246  A    between atoms: _609  and  _610
REMARK  247  A    between atoms: _610  and  _611
REMARK  248  A    between atoms: _615  and  _617
REMARK  249  A    between atoms: _617  and  _618
REMARK  250  A    between atoms: _617  and  _620
REMARK  251  A    between atoms: _620  and  _621
REMARK  252  A    between atoms: _627  and  _629
REMARK  253  A    between atoms: _629  and  _630
REMARK  254  A    between atoms: _633  and  _635
REMARK  255  A    between atoms: _635  and  _636
REMARK  256  A    between atoms: _635  and  _638
REMARK  257  A    between atoms: _638  and  _639
REMARK  258  A    between atoms: _642  and  _644
REMARK  259  A    between atoms: _644  and  _645
REMARK  260  A    between atoms: _644  and  _647
REMARK  261  A    between atoms: _647  and  _648
REMARK  262  A    between atoms: _650  and  _652
REMARK  263  A    between atoms: _652  and  _653
REMARK  264  A    between atoms: _652  and  _655
REMARK  265  A    between atoms: _655  and  _656
REMARK  266  A    between atoms: _656  and  _657
REMARK  267  A    between atoms: _662  and  _664
REMARK  268  A    between atoms: _664  and  _665
REMARK  269  A    between atoms: _664  and  _667
REMARK  270  A    between atoms: _667  and  _668
REMARK  271  A    between atoms: _670  and  _672
REMARK  272  A    between atoms: _672  and  _673
REMARK  273  A    between atoms: _672  and  _675
REMARK  274  A    between atoms: _675  and  _676
REMARK  275  A    between atoms: _679  and  _681
REMARK  276  A    between atoms: _681  and  _682
REMARK  277  A    between atoms: _684  and  _686
REMARK  278  A    between atoms: _686  and  _687
REMARK  279  A    between atoms: _686  and  _689
REMARK  280  A    between atoms: _689  and  _690
REMARK  281  A    between atoms: _693  and  _695
REMARK  282  A    between atoms: _695  and  _696
REMARK  283  A    between atoms: _695  and  _698
REMARK  284  A    between atoms: _701  and  _703
REMARK  285  A    between atoms: _703  and  _704
REMARK  286  A    between atoms: _706  and  _708
REMARK  287  A    between atoms: _708  and  _709
REMARK  288  A    between atoms: _712  and  _714
REMARK  289  A    between atoms: _714  and  _715
REMARK  290  A    between atoms: _714  and  _717
REMARK  291  A    between atoms: _720  and  _722
REMARK  292  A    between atoms: _722  and  _723
REMARK  293  A    between atoms: _722  and  _725
REMARK  294  A    between atoms: _725  and  _726
REMARK  295  A    between atoms: _726  and  _727
REMARK  296  A    between atoms: _729  and  _731
REMARK  297  A    between atoms: _731  and  _732
REMARK  298  A    between atoms: _731  and  _734
REMARK  299  A    between atoms: _734  and  _735
REMARK  300  A    between atoms: _735  and  _736
REMARK                            x       y       z     vdW  Elec       q    Type
REMARK                         _______ _______ _______ _____ _____    ______ ____
ROOT
ATOM      1  O   HOH     1      35.797  -5.084   4.187  0.00  0.00    +0.000 OA
ENDROOT
TORSDOF 0
REMARK  Name = ../refined-set-2016/4gid/4gid_pocket.pdb
REMARK  300 active torsions:
REMARK  status: ('A' for Active; 'I' for Inactive)
REMARK    1  A    between atoms: _1  and  _3
REMARK    2  A    between atoms: _3  and  _4
REMARK    3  A    between atoms: _6  and  _8
REMARK    4  A    between atoms: _8  and  _9
REMARK    5  A    between atoms: _8  and  _11
REMARK    6  A    between atoms: _11  and  _12
REMARK    7  A    between atoms: _12  and  _13
REMARK    8  A    between atoms: _13  and  _14
REMARK    9  A    between atoms: _14  and  _15
REMARK   10  A    between atoms: _19  and  _21
REMARK   11  A    between atoms: _21  and  _22
REMARK   12  A    between atoms: _21  and  _24
REMARK   13  A    between atoms: _24  and  _25
REMARK   14  A    between atoms: _27  and  _29
REMARK   15  A    between atoms: _29  and  _30
REMARK   16  A    between atoms: _32  and  _34
REMARK   17  A    between atoms: _34  and  _35
REMARK   18  A    between atoms: _34  and  _37
REMARK   19  A    between atoms: _37  and  _38
REMARK   20  A    between atoms: _38  and  _39
REMARK   21  A    between atoms: _44  and  _46
REMARK   22  A    between atoms: _46  and  _47
REMARK   23  A    between atoms: _49  and  _51
REMARK   24  A    between atoms: _51  and  _52
REMARK   25  A    between atoms: _51  and  _54
REMARK   26  A    between atoms: _54  and  _55
REMARK   27  A    between atoms: _60  and  _61
REMARK   28  A    between atoms: _63  and  _65
REMARK   29  A    between atoms: _65  and  _66
REMARK   30  A    between atoms: _65  and  _68
REMARK   31  A    between atoms: _68  and  _69
REMARK   32  A    between atoms: _74  and  _75
REMARK   33  A    between atoms: _77  and  _79
REMARK   34  A    between atoms: _79  and  _80
REMARK   35  A    between atoms: _79  and  _82
REMARK   36  A    between atoms: _82  and  _83
REMARK   37  A    between atoms: _86  and  _88
REMARK   38  A    between atoms: _88  and  _89
REMARK   39  A    between atoms: _88  and  _91
REMARK   40  A    between atoms: _94  and  _96
REMARK   41  A    between atoms: _96  and  _97
REMARK   42  A    between atoms: _96  and  _99
REMARK   43  A    between atoms: _99  and  _100
REMARK   44  A    between atoms: _103  and  _105
REMARK   45  A    between atoms: _105  and  _106
REMARK   46  A    between atoms: _105  and  _108
REMARK   47  A    between atoms: _108  and  _109
REMARK   48  A    between atoms: _112  and  _114
REMARK   49  A    between atoms: _114  and  _115
REMARK   50  A    between atoms: _117  and  _119
REMARK   51  A    between atoms: _119  and  _120
REMARK   52  A    between atoms: _119  and  _122
REMARK   53  A    between atoms: _122  and  _123
REMARK   54  A    between atoms: _125  and  _127
REMARK   55  A    between atoms: _127  and  _128
REMARK   56  A    between atoms: _127  and  _130
REMARK   57  A    between atoms: _130  and  _131
REMARK   58  A    between atoms: _133  and  _135
REMARK   59  A    between atoms: _135  and  _136
REMARK   60  A    between atoms: _135  and  _138
REMARK   61  A    between atoms: _138  and  _139
REMARK   62  A    between atoms: _144  and  _146
REMARK   63  A    between atoms: _146  and  _147
REMARK   64  A    between atoms: _146  and  _149
REMARK   65  A    between atoms: _149  and  _150
REMARK   66  A    between atoms: _155  and  _156
REMARK   67  A    between atoms: _158  and  _160
REMARK   68  A    between atoms: _160  and  _161
REMARK   69  A    between atoms: _160  and  _163
REMARK   70  A    between atoms: _167  and  _168
REMARK   71  A    between atoms: _173  and  _175
REMARK   72  A    between atoms: _175  and  _176
REMARK   73  A    between atoms: _175  and  _178
REMARK   74  A    between atoms: _178  and  _179
REMARK   75  A    between atoms: _184  and  _185
REMARK   76  A    between atoms: _187  and  _189
REMARK   77  A    between atoms: _189  and  _190
REMARK   78  A    between atoms: _189  and  _192
REMARK   79  A    between atoms: _192  and  _193
REMARK   80  A    between atoms: _196  and  _198
REMARK   81  A    between atoms: _198  and  _199
REMARK   82  A    between atoms: _198  and  _201
REMARK   83  A    between atoms: _201  and  _202
REMARK   84  A    between atoms: _202  and  _203
REMARK   85  A    between atoms: _208  and  _210
REMARK   86  A    between atoms: _210  and  _211
REMARK   87  A    between atoms: _213  and  _215
REMARK   88  A    between atoms: _215  and  _216
REMARK   89  A    between atoms: _215  and  _218
REMARK   90  A    between atoms: _218  and  _219
REMARK   91  A    between atoms: _219  and  _220
REMARK   92  A    between atoms: _220  and  _221
REMARK   93  A    between atoms: _221  and  _222
REMARK   94  A    between atoms: _226  and  _228
REMARK   95  A    between atoms: _228  and  _229
REMARK   96  A    between atoms: _228  and  _231
REMARK   97  A    between atoms: _231  and  _232
REMARK   98  A    between atoms: _242  and  _244
REMARK   99  A    between atoms: _244  and  _245
REMARK  100  A    between atoms: _244  and  _247
REMARK  101  A    between atoms: _247  and  _248
REMARK  102  A    between atoms: _251  and  _253
REMARK  103  A    between atoms: _253  and  _254
REMARK  104  A    between atoms: _253  and  _256
REMARK  105  A    between atoms: _256  and  _257
REMARK  106  A    between atoms: _257  and  _258
REMARK  107  A    between atoms: _258  and  _259
REMARK  108  A    between atoms: _259  and  _260
REMARK  109  A    between atoms: _264  and  _266
REMARK  110  A    between atoms: _266  and  _267
REMARK  111  A    between atoms: _266  and  _269
REMARK  112  A    between atoms: _269  and  _270
REMARK  113  A    between atoms: _276  and  _278
REMARK  114  A    between atoms: _278  and  _279
REMARK  115  A    between atoms: _278  and  _281
REMARK  116  A    between atoms: _281  and  _282
REMARK  117  A    between atoms: _288  and  _290
REMARK  118  A    between atoms: _290  and  _291
REMARK  119  A    between atoms: _290  and  _293
REMARK  120  A    between atoms: _293  and  _294
REMARK  121  A    between atoms: _297  and  _299
REMARK  122  A    between atoms: _299  and  _300
REMARK  123  A    between atoms: _299  and  _302
REMARK  124  A    between atoms: _302  and  _303
REMARK  125  A    between atoms: _305  and  _307
REMARK  126  A    between atoms: _307  and  _308
REMARK  127  A    between atoms: _307  and  _310
REMARK  128  A    between atoms: _310  and  _311
REMARK  129  A    between atoms: _321  and  _323
REMARK  130  A    between atoms: _323  and  _324
REMARK  131  A    between atoms: _326  and  _328
REMARK  132  A    between atoms: _328  and  _329
REMARK  133  A    between atoms: _328  and  _331
REMARK  134  A    between atoms: _331  and  _332
REMARK  135  A    between atoms: _335  and  _337
REMARK  136  A    between atoms: _337  and  _338
REMARK  137  A    between atoms: _337  and  _340
REMARK  138  A    between atoms: _340  and  _341
REMARK  139  A    between atoms: _344  and  _346
REMARK  140  A    between atoms: _346  and  _347
REMARK  141  A    between atoms: _349  and  _351
REMARK  142  A    between atoms: _351  and  _352
REMARK  143  A    between atoms: _355  and  _357
REMARK  144  A    between atoms: _357  and  _358
REMARK  145  A    between atoms: _357  and  _360
REMARK  146  A    between atoms: _360  and  _361
REMARK  147  A    between atoms: _366  and  _367
REMARK  148  A    between atoms: _369  and  _371
REMARK  149  A    between atoms: _371  and  _372
REMARK  150  A    between atoms: _371  and  _374
REMARK  151  A    between atoms: _374  and  _375
REMARK  152  A    between atoms: _375  and  _376
REMARK  153  A    between atoms: _379  and  _381
REMARK  154  A    between atoms: _381  and  _382
REMARK  155  A    between atoms: _381  and  _384
REMARK  156  A    between atoms: _384  and  _385
REMARK  157  A    between atoms: _388  and  _390
REMARK  158  A    between atoms: _390  and  _391
REMARK  159  A    between atoms: _394  and  _396
REMARK  160  A    between atoms: _396  and  _397
REMARK  161  A    between atoms: _396  and  _399
REMARK  162  A    between atoms: _399  and  _400
REMARK  163  A    between atoms: _400  and  _401
REMARK  164  A    between atoms: _401  and  _402
REMARK  165  A    between atoms: _411  and  _413
REMARK  166  A    between atoms: _413  and  _414
REMARK  167  A    between atoms: _413  and  _416
REMARK  168  A    between atoms: _416  and  _417
REMARK  169  A    between atoms: _420  and  _422
REMARK  170  A    between atoms: _422  and  _423
REMARK  171  A    between atoms: _422  and  _425
REMARK  172  A    between atoms: _425  and  _426
REMARK  173  A    between atoms: _436  and  _438
REMARK  174  A    between atoms: _438  and  _439
REMARK  175  A    between atoms: _438  and  _441
REMARK  176  A    between atoms: _441  and  _442
REMARK  177  A    between atoms: _447  and  _448
REMARK  178  A    between atoms: _450  and  _452
REMARK  179  A    between atoms: _452  and  _453
REMARK  180  A    between atoms: _452  and  _455
REMARK  181  A    between atoms: _455  and  _456
REMARK  182  A    between atoms: _461  and  _462
REMARK  183  A    between atoms: _464  and  _466
REMARK  184  A    between atoms: _466  and  _467
REMARK  185  A    between atoms: _466  and  _469
REMARK  186  A    between atoms: _469  and  _470
REMARK  187  A    between atoms: _470  and  _471
REMARK  188  A    between atoms: _471  and  _472
REMARK  189  A    between atoms: _472  and  _473
REMARK  190  A    between atoms: _477  and  _479
REMARK  191  A    between atoms: _479  and  _480
REMARK  192  A    between atoms: _479  and  _482
REMARK  193  A    between atoms: _482  and  _483
REMARK  194  A    between atoms: _486  and  _488
REMARK  195  A    between atoms: _488  and  _489
REMARK  196  A    between atoms: _488  and  _491
REMARK  197  A    between atoms: _494  and  _496
REMARK  198  A    between atoms: _496  and  _497
REMARK  199  A    between atoms: _496  and  _499
REMARK  200  A    between atoms: _499  and  _500
REMARK  201  A    between atoms: _503  and  _505
REMARK  202  A    between atoms: _505  and  _506
REMARK  203  A    between atoms: _505  and  _508
REMARK  204  A    between atoms: _508  and  _509
REMARK  205  A    between atoms: _511  and  _513
REMARK  206  A    between atoms: _513  and  _514
REMARK  207  A    between atoms: _516  and  _518
REMARK  208  A    between atoms: _518  and  _519
REMARK  209  A    between atoms: _518  and  _521
REMARK  210  A    between atoms: _521  and  _522
REMARK  211  A    between atoms: _525  and  _527
REMARK  212  A    between atoms: _527  and  _528
REMARK  213  A    between atoms: _527  and  _530
REMARK  214  A    between atoms: _530  and  _531
REMARK  215  A    between atoms: _534  and  _536
REMARK  216  A    between atoms: _536  and  _537
REMARK  217  A    between atoms: _536  and  _539
REMARK  218  A    between atoms: _539  and  _540
REMARK  219  A    between atoms: _545  and  _547
REMARK  220  A    between atoms: _547  and  _548
REMARK  221  A    between atoms: _547  and  _550
REMARK  222  A    between atoms: _550  and  _551
REMARK  223  A    between atoms: _554  and  _556
REMARK  224  A    between atoms: _556  and  _557
REMARK  225  A    between atoms: _556  and  _559
REMARK  226  A    between atoms: _559  and  _560
REMARK  227  A    between atoms: _560  and  _561
REMARK  228  A    between atoms: _561  and  _562
REMARK  229  A    between atoms: _571  and  _573
REMARK  230  A    between atoms: _573  and  _574
REMARK  231  A    between atoms: _573  and  _576
REMARK  232  A    between atoms: _576  and  _577
REMARK  233  A    between atoms: _580  and  _582
REMARK  234  A    between atoms: _582  and  _583
REMARK  235  A    between atoms: _585  and  _587
REMARK  236  A    between atoms: _587  and  _588
REMARK  237  A    between atoms: _587  and  _590
REMARK  238  A    between atoms: _590  and  _591
REMARK  239  A    between atoms: _591  and  _592
REMARK  240  A    between atoms: _592  and  _593
REMARK  241  A    between atoms: _602  and  _604
REMARK  242  A    between atoms: _604  and  _605
REMARK  243  A    between atoms: _604  and  _607
REMARK  244  A    between atoms: _607  and  _608
REMARK  245  A    between atoms: _608  and  _609
REMARK  246  A    between atoms: _609  and  _610
REMARK  247  A    between atoms: _610  and  _611
REMARK  248  A    between atoms: _615  and  _617
REMARK  249  A    between atoms: _617  and  _618
REMARK  250  A    between atoms: _617  and  _620
REMARK  251  A    between atoms: _620  and  _621
REMARK  252  A    between atoms: _627  and  _629
REMARK  253  A    between atoms: _629  and  _630
REMARK  254  A    between atoms: _633  and  _635
REMARK  255  A    between atoms: _635  and  _636
REMARK  256  A    between atoms: _635  and  _638
REMARK  257  A    between atoms: _638  and  _639
REMARK  258  A    between atoms: _642  and  _644
REMARK  259  A    between atoms: _644  and  _645
REMARK  260  A    between atoms: _644  and  _647
REMARK  261  A    between atoms: _647  and  _648
REMARK  262  A    between atoms: _650  and  _652
REMARK  263  A    between atoms: _652  and  _653
REMARK  264  A    between atoms: _652  and  _655
REMARK  265  A    between atoms: _655  and  _656
REMARK  266  A    between atoms: _656  and  _657
REMARK  267  A    between atoms: _662  and  _664
REMARK  268  A    between atoms: _664  and  _665
REMARK  269  A    between atoms: _664  and  _667
REMARK  270  A    between atoms: _667  and  _668
REMARK  271  A    between atoms: _670  and  _672
REMARK  272  A    between atoms: _672  and  _673
REMARK  273  A    between atoms: _672  and  _675
REMARK  274  A    between atoms: _675  and  _676
REMARK  275  A    between atoms: _679  and  _681
REMARK  276  A    between atoms: _681  and  _682
REMARK  277  A    between atoms: _684  and  _686
REMARK  278  A    between atoms: _686  and  _687
REMARK  279  A    between atoms: _686  and  _689
REMARK  280  A    between atoms: _689  and  _690
REMARK  281  A    between atoms: _693  and  _695
REMARK  282  A    between atoms: _695  and  _696
REMARK  283  A    between atoms: _695  and  _698
REMARK  284  A    between atoms: _701  and  _703
REMARK  285  A    between atoms: _703  and  _704
REMARK  286  A    between atoms: _706  and  _708
REMARK  287  A    between atoms: _708  and  _709
REMARK  288  A    between atoms: _712  and  _714
REMARK  289  A    between atoms: _714  and  _715
REMARK  290  A    between atoms: _714  and  _717
REMARK  291  A    between atoms: _720  and  _722
REMARK  292  A    between atoms: _722  and  _723
REMARK  293  A    between atoms: _722  and  _725
REMARK  294  A    between atoms: _725  and  _726
REMARK  295  A    between atoms: _726  and  _727
REMARK  296  A    between atoms: _729  and  _731
REMARK  297  A    between atoms: _731  and  _732
REMARK  298  A    between atoms: _731  and  _734
REMARK  299  A    between atoms: _734  and  _735
REMARK  300  A    between atoms: _735  and  _736
REMARK                            x       y       z     vdW  Elec       q    Type
REMARK                         _______ _______ _______ _____ _____    ______ ____
ROOT
ATOM      1  O   HOH     1      50.599  -5.222   5.730  0.00  0.00    +0.000 OA
ENDROOT
TORSDOF 0
REMARK  Name = ../refined-set-2016/4gid/4gid_pocket.pdb
REMARK  300 active torsions:
REMARK  status: ('A' for Active; 'I' for Inactive)
REMARK    1  A    between atoms: _1  and  _3
REMARK    2  A    between atoms: _3  and  _4
REMARK    3  A    between atoms: _6  and  _8
REMARK    4  A    between atoms: _8  and  _9
REMARK    5  A    between atoms: _8  and  _11
REMARK    6  A    between atoms: _11  and  _12
REMARK    7  A    between atoms: _12  and  _13
REMARK    8  A    between atoms: _13  and  _14
REMARK    9  A    between atoms: _14  and  _15
REMARK   10  A    between atoms: _19  and  _21
REMARK   11  A    between atoms: _21  and  _22
REMARK   12  A    between atoms: _21  and  _24
REMARK   13  A    between atoms: _24  and  _25
REMARK   14  A    between atoms: _27  and  _29
REMARK   15  A    between atoms: _29  and  _30
REMARK   16  A    between atoms: _32  and  _34
REMARK   17  A    between atoms: _34  and  _35
REMARK   18  A    between atoms: _34  and  _37
REMARK   19  A    between atoms: _37  and  _38
REMARK   20  A    between atoms: _38  and  _39
REMARK   21  A    between atoms: _44  and  _46
REMARK   22  A    between atoms: _46  and  _47
REMARK   23  A    between atoms: _49  and  _51
REMARK   24  A    between atoms: _51  and  _52
REMARK   25  A    between atoms: _51  and  _54
REMARK   26  A    between atoms: _54  and  _55
REMARK   27  A    between atoms: _60  and  _61
REMARK   28  A    between atoms: _63  and  _65
REMARK   29  A    between atoms: _65  and  _66
REMARK   30  A    between atoms: _65  and  _68
REMARK   31  A    between atoms: _68  and  _69
REMARK   32  A    between atoms: _74  and  _75
REMARK   33  A    between atoms: _77  and  _79
REMARK   34  A    between atoms: _79  and  _80
REMARK   35  A    between atoms: _79  and  _82
REMARK   36  A    between atoms: _82  and  _83
REMARK   37  A    between atoms: _86  and  _88
REMARK   38  A    between atoms: _88  and  _89
REMARK   39  A    between atoms: _88  and  _91
REMARK   40  A    between atoms: _94  and  _96
REMARK   41  A    between atoms: _96  and  _97
REMARK   42  A    between atoms: _96  and  _99
REMARK   43  A    between atoms: _99  and  _100
REMARK   44  A    between atoms: _103  and  _105
REMARK   45  A    between atoms: _105  and  _106
REMARK   46  A    between atoms: _105  and  _108
REMARK   47  A    between atoms: _108  and  _109
REMARK   48  A    between atoms: _112  and  _114
REMARK   49  A    between atoms: _114  and  _115
REMARK   50  A    between atoms: _117  and  _119
REMARK   51  A    between atoms: _119  and  _120
REMARK   52  A    between atoms: _119  and  _122
REMARK   53  A    between atoms: _122  and  _123
REMARK   54  A    between atoms: _125  and  _127
REMARK   55  A    between atoms: _127  and  _128
REMARK   56  A    between atoms: _127  and  _130
REMARK   57  A    between atoms: _130  and  _131
REMARK   58  A    between atoms: _133  and  _135
REMARK   59  A    between atoms: _135  and  _136
REMARK   60  A    between atoms: _135  and  _138
REMARK   61  A    between atoms: _138  and  _139
REMARK   62  A    between atoms: _144  and  _146
REMARK   63  A    between atoms: _146  and  _147
REMARK   64  A    between atoms: _146  and  _149
REMARK   65  A    between atoms: _149  and  _150
REMARK   66  A    between atoms: _155  and  _156
REMARK   67  A    between atoms: _158  and  _160
REMARK   68  A    between atoms: _160  and  _161
REMARK   69  A    between atoms: _160  and  _163
REMARK   70  A    between atoms: _167  and  _168
REMARK   71  A    between atoms: _173  and  _175
REMARK   72  A    between atoms: _175  and  _176
REMARK   73  A    between atoms: _175  and  _178
REMARK   74  A    between atoms: _178  and  _179
REMARK   75  A    between atoms: _184  and  _185
REMARK   76  A    between atoms: _187  and  _189
REMARK   77  A    between atoms: _189  and  _190
REMARK   78  A    between atoms: _189  and  _192
REMARK   79  A    between atoms: _192  and  _193
REMARK   80  A    between atoms: _196  and  _198
REMARK   81  A    between atoms: _198  and  _199
REMARK   82  A    between atoms: _198  and  _201
REMARK   83  A    between atoms: _201  and  _202
REMARK   84  A    between atoms: _202  and  _203
REMARK   85  A    between atoms: _208  and  _210
REMARK   86  A    between atoms: _210  and  _211
REMARK   87  A    between atoms: _213  and  _215
REMARK   88  A    between atoms: _215  and  _216
REMARK   89  A    between atoms: _215  and  _218
REMARK   90  A    between atoms: _218  and  _219
REMARK   91  A    between atoms: _219  and  _220
REMARK   92  A    between atoms: _220  and  _221
REMARK   93  A    between atoms: _221  and  _222
REMARK   94  A    between atoms: _226  and  _228
REMARK   95  A    between atoms: _228  and  _229
REMARK   96  A    between atoms: _228  and  _231
REMARK   97  A    between atoms: _231  and  _232
REMARK   98  A    between atoms: _242  and  _244
REMARK   99  A    between atoms: _244  and  _245
REMARK  100  A    between atoms: _244  and  _247
REMARK  101  A    between atoms: _247  and  _248
REMARK  102  A    between atoms: _251  and  _253
REMARK  103  A    between atoms: _253  and  _254
REMARK  104  A    between atoms: _253  and  _256
REMARK  105  A    between atoms: _256  and  _257
REMARK  106  A    between atoms: _257  and  _258
REMARK  107  A    between atoms: _258  and  _259
REMARK  108  A    between atoms: _259  and  _260
REMARK  109  A    between atoms: _264  and  _266
REMARK  110  A    between atoms: _266  and  _267
REMARK  111  A    between atoms: _266  and  _269
REMARK  112  A    between atoms: _269  and  _270
REMARK  113  A    between atoms: _276  and  _278
REMARK  114  A    between atoms: _278  and  _279
REMARK  115  A    between atoms: _278  and  _281
REMARK  116  A    between atoms: _281  and  _282
REMARK  117  A    between atoms: _288  and  _290
REMARK  118  A    between atoms: _290  and  _291
REMARK  119  A    between atoms: _290  and  _293
REMARK  120  A    between atoms: _293  and  _294
REMARK  121  A    between atoms: _297  and  _299
REMARK  122  A    between atoms: _299  and  _300
REMARK  123  A    between atoms: _299  and  _302
REMARK  124  A    between atoms: _302  and  _303
REMARK  125  A    between atoms: _305  and  _307
REMARK  126  A    between atoms: _307  and  _308
REMARK  127  A    between atoms: _307  and  _310
REMARK  128  A    between atoms: _310  and  _311
REMARK  129  A    between atoms: _321  and  _323
REMARK  130  A    between atoms: _323  and  _324
REMARK  131  A    between atoms: _326  and  _328
REMARK  132  A    between atoms: _328  and  _329
REMARK  133  A    between atoms: _328  and  _331
REMARK  134  A    between atoms: _331  and  _332
REMARK  135  A    between atoms: _335  and  _337
REMARK  136  A    between atoms: _337  and  _338
REMARK  137  A    between atoms: _337  and  _340
REMARK  138  A    between atoms: _340  and  _341
REMARK  139  A    between atoms: _344  and  _346
REMARK  140  A    between atoms: _346  and  _347
REMARK  141  A    between atoms: _349  and  _351
REMARK  142  A    between atoms: _351  and  _352
REMARK  143  A    between atoms: _355  and  _357
REMARK  144  A    between atoms: _357  and  _358
REMARK  145  A    between atoms: _357  and  _360
REMARK  146  A    between atoms: _360  and  _361
REMARK  147  A    between atoms: _366  and  _367
REMARK  148  A    between atoms: _369  and  _371
REMARK  149  A    between atoms: _371  and  _372
REMARK  150  A    between atoms: _371  and  _374
REMARK  151  A    between atoms: _374  and  _375
REMARK  152  A    between atoms: _375  and  _376
REMARK  153  A    between atoms: _379  and  _381
REMARK  154  A    between atoms: _381  and  _382
REMARK  155  A    between atoms: _381  and  _384
REMARK  156  A    between atoms: _384  and  _385
REMARK  157  A    between atoms: _388  and  _390
REMARK  158  A    between atoms: _390  and  _391
REMARK  159  A    between atoms: _394  and  _396
REMARK  160  A    between atoms: _396  and  _397
REMARK  161  A    between atoms: _396  and  _399
REMARK  162  A    between atoms: _399  and  _400
REMARK  163  A    between atoms: _400  and  _401
REMARK  164  A    between atoms: _401  and  _402
REMARK  165  A    between atoms: _411  and  _413
REMARK  166  A    between atoms: _413  and  _414
REMARK  167  A    between atoms: _413  and  _416
REMARK  168  A    between atoms: _416  and  _417
REMARK  169  A    between atoms: _420  and  _422
REMARK  170  A    between atoms: _422  and  _423
REMARK  171  A    between atoms: _422  and  _425
REMARK  172  A    between atoms: _425  and  _426
REMARK  173  A    between atoms: _436  and  _438
REMARK  174  A    between atoms: _438  and  _439
REMARK  175  A    between atoms: _438  and  _441
REMARK  176  A    between atoms: _441  and  _442
REMARK  177  A    between atoms: _447  and  _448
REMARK  178  A    between atoms: _450  and  _452
REMARK  179  A    between atoms: _452  and  _453
REMARK  180  A    between atoms: _452  and  _455
REMARK  181  A    between atoms: _455  and  _456
REMARK  182  A    between atoms: _461  and  _462
REMARK  183  A    between atoms: _464  and  _466
REMARK  184  A    between atoms: _466  and  _467
REMARK  185  A    between atoms: _466  and  _469
REMARK  186  A    between atoms: _469  and  _470
REMARK  187  A    between atoms: _470  and  _471
REMARK  188  A    between atoms: _471  and  _472
REMARK  189  A    between atoms: _472  and  _473
REMARK  190  A    between atoms: _477  and  _479
REMARK  191  A    between atoms: _479  and  _480
REMARK  192  A    between atoms: _479  and  _482
REMARK  193  A    between atoms: _482  and  _483
REMARK  194  A    between atoms: _486  and  _488
REMARK  195  A    between atoms: _488  and  _489
REMARK  196  A    between atoms: _488  and  _491
REMARK  197  A    between atoms: _494  and  _496
REMARK  198  A    between atoms: _496  and  _497
REMARK  199  A    between atoms: _496  and  _499
REMARK  200  A    between atoms: _499  and  _500
REMARK  201  A    between atoms: _503  and  _505
REMARK  202  A    between atoms: _505  and  _506
REMARK  203  A    between atoms: _505  and  _508
REMARK  204  A    between atoms: _508  and  _509
REMARK  205  A    between atoms: _511  and  _513
REMARK  206  A    between atoms: _513  and  _514
REMARK  207  A    between atoms: _516  and  _518
REMARK  208  A    between atoms: _518  and  _519
REMARK  209  A    between atoms: _518  and  _521
REMARK  210  A    between atoms: _521  and  _522
REMARK  211  A    between atoms: _525  and  _527
REMARK  212  A    between atoms: _527  and  _528
REMARK  213  A    between atoms: _527  and  _530
REMARK  214  A    between atoms: _530  and  _531
REMARK  215  A    between atoms: _534  and  _536
REMARK  216  A    between atoms: _536  and  _537
REMARK  217  A    between atoms: _536  and  _539
REMARK  218  A    between atoms: _539  and  _540
REMARK  219  A    between atoms: _545  and  _547
REMARK  220  A    between atoms: _547  and  _548
REMARK  221  A    between atoms: _547  and  _550
REMARK  222  A    between atoms: _550  and  _551
REMARK  223  A    between atoms: _554  and  _556
REMARK  224  A    between atoms: _556  and  _557
REMARK  225  A    between atoms: _556  and  _559
REMARK  226  A    between atoms: _559  and  _560
REMARK  227  A    between atoms: _560  and  _561
REMARK  228  A    between atoms: _561  and  _562
REMARK  229  A    between atoms: _571  and  _573
REMARK  230  A    between atoms: _573  and  _574
REMARK  231  A    between atoms: _573  and  _576
REMARK  232  A    between atoms: _576  and  _577
REMARK  233  A    between atoms: _580  and  _582
REMARK  234  A    between atoms: _582  and  _583
REMARK  235  A    between atoms: _585  and  _587
REMARK  236  A    between atoms: _587  and  _588
REMARK  237  A    between atoms: _587  and  _590
REMARK  238  A    between atoms: _590  and  _591
REMARK  239  A    between atoms: _591  and  _592
REMARK  240  A    between atoms: _592  and  _593
REMARK  241  A    between atoms: _602  and  _604
REMARK  242  A    between atoms: _604  and  _605
REMARK  243  A    between atoms: _604  and  _607
REMARK  244  A    between atoms: _607  and  _608
REMARK  245  A    between atoms: _608  and  _609
REMARK  246  A    between atoms: _609  and  _610
REMARK  247  A    between atoms: _610  and  _611
REMARK  248  A    between atoms: _615  and  _617
REMARK  249  A    between atoms: _617  and  _618
REMARK  250  A    between atoms: _617  and  _620
REMARK  251  A    between atoms: _620  and  _621
REMARK  252  A    between atoms: _627  and  _629
REMARK  253  A    between atoms: _629  and  _630
REMARK  254  A    between atoms: _633  and  _635
REMARK  255  A    between atoms: _635  and  _636
REMARK  256  A    between atoms: _635  and  _638
REMARK  257  A    between atoms: _638  and  _639
REMARK  258  A    between atoms: _642  and  _644
REMARK  259  A    between atoms: _644  and  _645
REMARK  260  A    between atoms: _644  and  _647
REMARK  261  A    between atoms: _647  and  _648
REMARK  262  A    between atoms: _650  and  _652
REMARK  263  A    between atoms: _652  and  _653
REMARK  264  A    between atoms: _652  and  _655
REMARK  265  A    between atoms: _655  and  _656
REMARK  266  A    between atoms: _656  and  _657
REMARK  267  A    between atoms: _662  and  _664
REMARK  268  A    between atoms: _664  and  _665
REMARK  269  A    between atoms: _664  and  _667
REMARK  270  A    between atoms: _667  and  _668
REMARK  271  A    between atoms: _670  and  _672
REMARK  272  A    between atoms: _672  and  _673
REMARK  273  A    between atoms: _672  and  _675
REMARK  274  A    between atoms: _675  and  _676
REMARK  275  A    between atoms: _679  and  _681
REMARK  276  A    between atoms: _681  and  _682
REMARK  277  A    between atoms: _684  and  _686
REMARK  278  A    between atoms: _686  and  _687
REMARK  279  A    between atoms: _686  and  _689
REMARK  280  A    between atoms: _689  and  _690
REMARK  281  A    between atoms: _693  and  _695
REMARK  282  A    between atoms: _695  and  _696
REMARK  283  A    between atoms: _695  and  _698
REMARK  284  A    between atoms: _701  and  _703
REMARK  285  A    between atoms: _703  and  _704
REMARK  286  A    between atoms: _706  and  _708
REMARK  287  A    between atoms: _708  and  _709
REMARK  288  A    between atoms: _712  and  _714
REMARK  289  A    between atoms: _714  and  _715
REMARK  290  A    between atoms: _714  and  _717
REMARK  291  A    between atoms: _720  and  _722
REMARK  292  A    between atoms: _722  and  _723
REMARK  293  A    between atoms: _722  and  _725
REMARK  294  A    between atoms: _725  and  _726
REMARK  295  A    between atoms: _726  and  _727
REMARK  296  A    between atoms: _729  and  _731
REMARK  297  A    between atoms: _731  and  _732
REMARK  298  A    between atoms: _731  and  _734
REMARK  299  A    between atoms: _734  and  _735
REMARK  300  A    between atoms: _735  and  _736
REMARK                            x       y       z     vdW  Elec       q    Type
REMARK                         _______ _______ _______ _____ _____    ______ ____
ROOT
ATOM      1  O   HOH     1      33.444  -0.453  19.053  0.00  0.00    +0.000 OA
ENDROOT
TORSDOF 0
REMARK  Name = ../refined-set-2016/4gid/4gid_pocket.pdb
REMARK  300 active torsions:
REMARK  status: ('A' for Active; 'I' for Inactive)
REMARK    1  A    between atoms: _1  and  _3
REMARK    2  A    between atoms: _3  and  _4
REMARK    3  A    between atoms: _6  and  _8
REMARK    4  A    between atoms: _8  and  _9
REMARK    5  A    between atoms: _8  and  _11
REMARK    6  A    between atoms: _11  and  _12
REMARK    7  A    between atoms: _12  and  _13
REMARK    8  A    between atoms: _13  and  _14
REMARK    9  A    between atoms: _14  and  _15
REMARK   10  A    between atoms: _19  and  _21
REMARK   11  A    between atoms: _21  and  _22
REMARK   12  A    between atoms: _21  and  _24
REMARK   13  A    between atoms: _24  and  _25
REMARK   14  A    between atoms: _27  and  _29
REMARK   15  A    between atoms: _29  and  _30
REMARK   16  A    between atoms: _32  and  _34
REMARK   17  A    between atoms: _34  and  _35
REMARK   18  A    between atoms: _34  and  _37
REMARK   19  A    between atoms: _37  and  _38
REMARK   20  A    between atoms: _38  and  _39
REMARK   21  A    between atoms: _44  and  _46
REMARK   22  A    between atoms: _46  and  _47
REMARK   23  A    between atoms: _49  and  _51
REMARK   24  A    between atoms: _51  and  _52
REMARK   25  A    between atoms: _51  and  _54
REMARK   26  A    between atoms: _54  and  _55
REMARK   27  A    between atoms: _60  and  _61
REMARK   28  A    between atoms: _63  and  _65
REMARK   29  A    between atoms: _65  and  _66
REMARK   30  A    between atoms: _65  and  _68
REMARK   31  A    between atoms: _68  and  _69
REMARK   32  A    between atoms: _74  and  _75
REMARK   33  A    between atoms: _77  and  _79
REMARK   34  A    between atoms: _79  and  _80
REMARK   35  A    between atoms: _79  and  _82
REMARK   36  A    between atoms: _82  and  _83
REMARK   37  A    between atoms: _86  and  _88
REMARK   38  A    between atoms: _88  and  _89
REMARK   39  A    between atoms: _88  and  _91
REMARK   40  A    between atoms: _94  and  _96
REMARK   41  A    between atoms: _96  and  _97
REMARK   42  A    between atoms: _96  and  _99
REMARK   43  A    between atoms: _99  and  _100
REMARK   44  A    between atoms: _103  and  _105
REMARK   45  A    between atoms: _105  and  _106
REMARK   46  A    between atoms: _105  and  _108
REMARK   47  A    between atoms: _108  and  _109
REMARK   48  A    between atoms: _112  and  _114
REMARK   49  A    between atoms: _114  and  _115
REMARK   50  A    between atoms: _117  and  _119
REMARK   51  A    between atoms: _119  and  _120
REMARK   52  A    between atoms: _119  and  _122
REMARK   53  A    between atoms: _122  and  _123
REMARK   54  A    between atoms: _125  and  _127
REMARK   55  A    between atoms: _127  and  _128
REMARK   56  A    between atoms: _127  and  _130
REMARK   57  A    between atoms: _130  and  _131
REMARK   58  A    between atoms: _133  and  _135
REMARK   59  A    between atoms: _135  and  _136
REMARK   60  A    between atoms: _135  and  _138
REMARK   61  A    between atoms: _138  and  _139
REMARK   62  A    between atoms: _144  and  _146
REMARK   63  A    between atoms: _146  and  _147
REMARK   64  A    between atoms: _146  and  _149
REMARK   65  A    between atoms: _149  and  _150
REMARK   66  A    between atoms: _155  and  _156
REMARK   67  A    between atoms: _158  and  _160
REMARK   68  A    between atoms: _160  and  _161
REMARK   69  A    between atoms: _160  and  _163
REMARK   70  A    between atoms: _167  and  _168
REMARK   71  A    between atoms: _173  and  _175
REMARK   72  A    between atoms: _175  and  _176
REMARK   73  A    between atoms: _175  and  _178
REMARK   74  A    between atoms: _178  and  _179
REMARK   75  A    between atoms: _184  and  _185
REMARK   76  A    between atoms: _187  and  _189
REMARK   77  A    between atoms: _189  and  _190
REMARK   78  A    between atoms: _189  and  _192
REMARK   79  A    between atoms: _192  and  _193
REMARK   80  A    between atoms: _196  and  _198
REMARK   81  A    between atoms: _198  and  _199
REMARK   82  A    between atoms: _198  and  _201
REMARK   83  A    between atoms: _201  and  _202
REMARK   84  A    between atoms: _202  and  _203
REMARK   85  A    between atoms: _208  and  _210
REMARK   86  A    between atoms: _210  and  _211
REMARK   87  A    between atoms: _213  and  _215
REMARK   88  A    between atoms: _215  and  _216
REMARK   89  A    between atoms: _215  and  _218
REMARK   90  A    between atoms: _218  and  _219
REMARK   91  A    between atoms: _219  and  _220
REMARK   92  A    between atoms: _220  and  _221
REMARK   93  A    between atoms: _221  and  _222
REMARK   94  A    between atoms: _226  and  _228
REMARK   95  A    between atoms: _228  and  _229
REMARK   96  A    between atoms: _228  and  _231
REMARK   97  A    between atoms: _231  and  _232
REMARK   98  A    between atoms: _242  and  _244
REMARK   99  A    between atoms: _244  and  _245
REMARK  100  A    between atoms: _244  and  _247
REMARK  101  A    between atoms: _247  and  _248
REMARK  102  A    between atoms: _251  and  _253
REMARK  103  A    between atoms: _253  and  _254
REMARK  104  A    between atoms: _253  and  _256
REMARK  105  A    between atoms: _256  and  _257
REMARK  106  A    between atoms: _257  and  _258
REMARK  107  A    between atoms: _258  and  _259
REMARK  108  A    between atoms: _259  and  _260
REMARK  109  A    between atoms: _264  and  _266
REMARK  110  A    between atoms: _266  and  _267
REMARK  111  A    between atoms: _266  and  _269
REMARK  112  A    between atoms: _269  and  _270
REMARK  113  A    between atoms: _276  and  _278
REMARK  114  A    between atoms: _278  and  _279
REMARK  115  A    between atoms: _278  and  _281
REMARK  116  A    between atoms: _281  and  _282
REMARK  117  A    between atoms: _288  and  _290
REMARK  118  A    between atoms: _290  and  _291
REMARK  119  A    between atoms: _290  and  _293
REMARK  120  A    between atoms: _293  and  _294
REMARK  121  A    between atoms: _297  and  _299
REMARK  122  A    between atoms: _299  and  _300
REMARK  123  A    between atoms: _299  and  _302
REMARK  124  A    between atoms: _302  and  _303
REMARK  125  A    between atoms: _305  and  _307
REMARK  126  A    between atoms: _307  and  _308
REMARK  127  A    between atoms: _307  and  _310
REMARK  128  A    between atoms: _310  and  _311
REMARK  129  A    between atoms: _321  and  _323
REMARK  130  A    between atoms: _323  and  _324
REMARK  131  A    between atoms: _326  and  _328
REMARK  132  A    between atoms: _328  and  _329
REMARK  133  A    between atoms: _328  and  _331
REMARK  134  A    between atoms: _331  and  _332
REMARK  135  A    between atoms: _335  and  _337
REMARK  136  A    between atoms: _337  and  _338
REMARK  137  A    between atoms: _337  and  _340
REMARK  138  A    between atoms: _340  and  _341
REMARK  139  A    between atoms: _344  and  _346
REMARK  140  A    between atoms: _346  and  _347
REMARK  141  A    between atoms: _349  and  _351
REMARK  142  A    between atoms: _351  and  _352
REMARK  143  A    between atoms: _355  and  _357
REMARK  144  A    between atoms: _357  and  _358
REMARK  145  A    between atoms: _357  and  _360
REMARK  146  A    between atoms: _360  and  _361
REMARK  147  A    between atoms: _366  and  _367
REMARK  148  A    between atoms: _369  and  _371
REMARK  149  A    between atoms: _371  and  _372
REMARK  150  A    between atoms: _371  and  _374
REMARK  151  A    between atoms: _374  and  _375
REMARK  152  A    between atoms: _375  and  _376
REMARK  153  A    between atoms: _379  and  _381
REMARK  154  A    between atoms: _381  and  _382
REMARK  155  A    between atoms: _381  and  _384
REMARK  156  A    between atoms: _384  and  _385
REMARK  157  A    between atoms: _388  and  _390
REMARK  158  A    between atoms: _390  and  _391
REMARK  159  A    between atoms: _394  and  _396
REMARK  160  A    between atoms: _396  and  _397
REMARK  161  A    between atoms: _396  and  _399
REMARK  162  A    between atoms: _399  and  _400
REMARK  163  A    between atoms: _400  and  _401
REMARK  164  A    between atoms: _401  and  _402
REMARK  165  A    between atoms: _411  and  _413
REMARK  166  A    between atoms: _413  and  _414
REMARK  167  A    between atoms: _413  and  _416
REMARK  168  A    between atoms: _416  and  _417
REMARK  169  A    between atoms: _420  and  _422
REMARK  170  A    between atoms: _422  and  _423
REMARK  171  A    between atoms: _422  and  _425
REMARK  172  A    between atoms: _425  and  _426
REMARK  173  A    between atoms: _436  and  _438
REMARK  174  A    between atoms: _438  and  _439
REMARK  175  A    between atoms: _438  and  _441
REMARK  176  A    between atoms: _441  and  _442
REMARK  177  A    between atoms: _447  and  _448
REMARK  178  A    between atoms: _450  and  _452
REMARK  179  A    between atoms: _452  and  _453
REMARK  180  A    between atoms: _452  and  _455
REMARK  181  A    between atoms: _455  and  _456
REMARK  182  A    between atoms: _461  and  _462
REMARK  183  A    between atoms: _464  and  _466
REMARK  184  A    between atoms: _466  and  _467
REMARK  185  A    between atoms: _466  and  _469
REMARK  186  A    between atoms: _469  and  _470
REMARK  187  A    between atoms: _470  and  _471
REMARK  188  A    between atoms: _471  and  _472
REMARK  189  A    between atoms: _472  and  _473
REMARK  190  A    between atoms: _477  and  _479
REMARK  191  A    between atoms: _479  and  _480
REMARK  192  A    between atoms: _479  and  _482
REMARK  193  A    between atoms: _482  and  _483
REMARK  194  A    between atoms: _486  and  _488
REMARK  195  A    between atoms: _488  and  _489
REMARK  196  A    between atoms: _488  and  _491
REMARK  197  A    between atoms: _494  and  _496
REMARK  198  A    between atoms: _496  and  _497
REMARK  199  A    between atoms: _496  and  _499
REMARK  200  A    between atoms: _499  and  _500
REMARK  201  A    between atoms: _503  and  _505
REMARK  202  A    between atoms: _505  and  _506
REMARK  203  A    between atoms: _505  and  _508
REMARK  204  A    between atoms: _508  and  _509
REMARK  205  A    between atoms: _511  and  _513
REMARK  206  A    between atoms: _513  and  _514
REMARK  207  A    between atoms: _516  and  _518
REMARK  208  A    between atoms: _518  and  _519
REMARK  209  A    between atoms: _518  and  _521
REMARK  210  A    between atoms: _521  and  _522
REMARK  211  A    between atoms: _525  and  _527
REMARK  212  A    between atoms: _527  and  _528
REMARK  213  A    between atoms: _527  and  _530
REMARK  214  A    between atoms: _530  and  _531
REMARK  215  A    between atoms: _534  and  _536
REMARK  216  A    between atoms: _536  and  _537
REMARK  217  A    between atoms: _536  and  _539
REMARK  218  A    between atoms: _539  and  _540
REMARK  219  A    between atoms: _545  and  _547
REMARK  220  A    between atoms: _547  and  _548
REMARK  221  A    between atoms: _547  and  _550
REMARK  222  A    between atoms: _550  and  _551
REMARK  223  A    between atoms: _554  and  _556
REMARK  224  A    between atoms: _556  and  _557
REMARK  225  A    between atoms: _556  and  _559
REMARK  226  A    between atoms: _559  and  _560
REMARK  227  A    between atoms: _560  and  _561
REMARK  228  A    between atoms: _561  and  _562
REMARK  229  A    between atoms: _571  and  _573
REMARK  230  A    between atoms: _573  and  _574
REMARK  231  A    between atoms: _573  and  _576
REMARK  232  A    between atoms: _576  and  _577
REMARK  233  A    between atoms: _580  and  _582
REMARK  234  A    between atoms: _582  and  _583
REMARK  235  A    between atoms: _585  and  _587
REMARK  236  A    between atoms: _587  and  _588
REMARK  237  A    between atoms: _587  and  _590
REMARK  238  A    between atoms: _590  and  _591
REMARK  239  A    between atoms: _591  and  _592
REMARK  240  A    between atoms: _592  and  _593
REMARK  241  A    between atoms: _602  and  _604
REMARK  242  A    between atoms: _604  and  _605
REMARK  243  A    between atoms: _604  and  _607
REMARK  244  A    between atoms: _607  and  _608
REMARK  245  A    between atoms: _608  and  _609
REMARK  246  A    between atoms: _609  and  _610
REMARK  247  A    between atoms: _610  and  _611
REMARK  248  A    between atoms: _615  and  _617
REMARK  249  A    between atoms: _617  and  _618
REMARK  250  A    between atoms: _617  and  _620
REMARK  251  A    between atoms: _620  and  _621
REMARK  252  A    between atoms: _627  and  _629
REMARK  253  A    between atoms: _629  and  _630
REMARK  254  A    between atoms: _633  and  _635
REMARK  255  A    between atoms: _635  and  _636
REMARK  256  A    between atoms: _635  and  _638
REMARK  257  A    between atoms: _638  and  _639
REMARK  258  A    between atoms: _642  and  _644
REMARK  259  A    between atoms: _644  and  _645
REMARK  260  A    between atoms: _644  and  _647
REMARK  261  A    between atoms: _647  and  _648
REMARK  262  A    between atoms: _650  and  _652
REMARK  263  A    between atoms: _652  and  _653
REMARK  264  A    between atoms: _652  and  _655
REMARK  265  A    between atoms: _655  and  _656
REMARK  266  A    between atoms: _656  and  _657
REMARK  267  A    between atoms: _662  and  _664
REMARK  268  A    between atoms: _664  and  _665
REMARK  269  A    between atoms: _664  and  _667
REMARK  270  A    between atoms: _667  and  _668
REMARK  271  A    between atoms: _670  and  _672
REMARK  272  A    between atoms: _672  and  _673
REMARK  273  A    between atoms: _672  and  _675
REMARK  274  A    between atoms: _675  and  _676
REMARK  275  A    between atoms: _679  and  _681
REMARK  276  A    between atoms: _681  and  _682
REMARK  277  A    between atoms: _684  and  _686
REMARK  278  A    between atoms: _686  and  _687
REMARK  279  A    between atoms: _686  and  _689
REMARK  280  A    between atoms: _689  and  _690
REMARK  281  A    between atoms: _693  and  _695
REMARK  282  A    between atoms: _695  and  _696
REMARK  283  A    between atoms: _695  and  _698
REMARK  284  A    between atoms: _701  and  _703
REMARK  285  A    between atoms: _703  and  _704
REMARK  286  A    between atoms: _706  and  _708
REMARK  287  A    between atoms: _708  and  _709
REMARK  288  A    between atoms: _712  and  _714
REMARK  289  A    between atoms: _714  and  _715
REMARK  290  A    between atoms: _714  and  _717
REMARK  291  A    between atoms: _720  and  _722
REMARK  292  A    between atoms: _722  and  _723
REMARK  293  A    between atoms: _722  and  _725
REMARK  294  A    between atoms: _725  and  _726
REMARK  295  A    between atoms: _726  and  _727
REMARK  296  A    between atoms: _729  and  _731
REMARK  297  A    between atoms: _731  and  _732
REMARK  298  A    between atoms: _731  and  _734
REMARK  299  A    between atoms: _734  and  _735
REMARK  300  A    between atoms: _735  and  _736
REMARK                            x       y       z     vdW  Elec       q    Type
REMARK                         _______ _______ _______ _____ _____    ______ ____
ROOT
ATOM      1  O   HOH     1      45.096   3.149  13.264  0.00  0.00    +0.000 OA
ENDROOT
TORSDOF 0
REMARK  Name = ../refined-set-2016/4gid/4gid_pocket.pdb
REMARK  300 active torsions:
REMARK  status: ('A' for Active; 'I' for Inactive)
REMARK    1  A    between atoms: _1  and  _3
REMARK    2  A    between atoms: _3  and  _4
REMARK    3  A    between atoms: _6  and  _8
REMARK    4  A    between atoms: _8  and  _9
REMARK    5  A    between atoms: _8  and  _11
REMARK    6  A    between atoms: _11  and  _12
REMARK    7  A    between atoms: _12  and  _13
REMARK    8  A    between atoms: _13  and  _14
REMARK    9  A    between atoms: _14  and  _15
REMARK   10  A    between atoms: _19  and  _21
REMARK   11  A    between atoms: _21  and  _22
REMARK   12  A    between atoms: _21  and  _24
REMARK   13  A    between atoms: _24  and  _25
REMARK   14  A    between atoms: _27  and  _29
REMARK   15  A    between atoms: _29  and  _30
REMARK   16  A    between atoms: _32  and  _34
REMARK   17  A    between atoms: _34  and  _35
REMARK   18  A    between atoms: _34  and  _37
REMARK   19  A    between atoms: _37  and  _38
REMARK   20  A    between atoms: _38  and  _39
REMARK   21  A    between atoms: _44  and  _46
REMARK   22  A    between atoms: _46  and  _47
REMARK   23  A    between atoms: _49  and  _51
REMARK   24  A    between atoms: _51  and  _52
REMARK   25  A    between atoms: _51  and  _54
REMARK   26  A    between atoms: _54  and  _55
REMARK   27  A    between atoms: _60  and  _61
REMARK   28  A    between atoms: _63  and  _65
REMARK   29  A    between atoms: _65  and  _66
REMARK   30  A    between atoms: _65  and  _68
REMARK   31  A    between atoms: _68  and  _69
REMARK   32  A    between atoms: _74  and  _75
REMARK   33  A    between atoms: _77  and  _79
REMARK   34  A    between atoms: _79  and  _80
REMARK   35  A    between atoms: _79  and  _82
REMARK   36  A    between atoms: _82  and  _83
REMARK   37  A    between atoms: _86  and  _88
REMARK   38  A    between atoms: _88  and  _89
REMARK   39  A    between atoms: _88  and  _91
REMARK   40  A    between atoms: _94  and  _96
REMARK   41  A    between atoms: _96  and  _97
REMARK   42  A    between atoms: _96  and  _99
REMARK   43  A    between atoms: _99  and  _100
REMARK   44  A    between atoms: _103  and  _105
REMARK   45  A    between atoms: _105  and  _106
REMARK   46  A    between atoms: _105  and  _108
REMARK   47  A    between atoms: _108  and  _109
REMARK   48  A    between atoms: _112  and  _114
REMARK   49  A    between atoms: _114  and  _115
REMARK   50  A    between atoms: _117  and  _119
REMARK   51  A    between atoms: _119  and  _120
REMARK   52  A    between atoms: _119  and  _122
REMARK   53  A    between atoms: _122  and  _123
REMARK   54  A    between atoms: _125  and  _127
REMARK   55  A    between atoms: _127  and  _128
REMARK   56  A    between atoms: _127  and  _130
REMARK   57  A    between atoms: _130  and  _131
REMARK   58  A    between atoms: _133  and  _135
REMARK   59  A    between atoms: _135  and  _136
REMARK   60  A    between atoms: _135  and  _138
REMARK   61  A    between atoms: _138  and  _139
REMARK   62  A    between atoms: _144  and  _146
REMARK   63  A    between atoms: _146  and  _147
REMARK   64  A    between atoms: _146  and  _149
REMARK   65  A    between atoms: _149  and  _150
REMARK   66  A    between atoms: _155  and  _156
REMARK   67  A    between atoms: _158  and  _160
REMARK   68  A    between atoms: _160  and  _161
REMARK   69  A    between atoms: _160  and  _163
REMARK   70  A    between atoms: _167  and  _168
REMARK   71  A    between atoms: _173  and  _175
REMARK   72  A    between atoms: _175  and  _176
REMARK   73  A    between atoms: _175  and  _178
REMARK   74  A    between atoms: _178  and  _179
REMARK   75  A    between atoms: _184  and  _185
REMARK   76  A    between atoms: _187  and  _189
REMARK   77  A    between atoms: _189  and  _190
REMARK   78  A    between atoms: _189  and  _192
REMARK   79  A    between atoms: _192  and  _193
REMARK   80  A    between atoms: _196  and  _198
REMARK   81  A    between atoms: _198  and  _199
REMARK   82  A    between atoms: _198  and  _201
REMARK   83  A    between atoms: _201  and  _202
REMARK   84  A    between atoms: _202  and  _203
REMARK   85  A    between atoms: _208  and  _210
REMARK   86  A    between atoms: _210  and  _211
REMARK   87  A    between atoms: _213  and  _215
REMARK   88  A    between atoms: _215  and  _216
REMARK   89  A    between atoms: _215  and  _218
REMARK   90  A    between atoms: _218  and  _219
REMARK   91  A    between atoms: _219  and  _220
REMARK   92  A    between atoms: _220  and  _221
REMARK   93  A    between atoms: _221  and  _222
REMARK   94  A    between atoms: _226  and  _228
REMARK   95  A    between atoms: _228  and  _229
REMARK   96  A    between atoms: _228  and  _231
REMARK   97  A    between atoms: _231  and  _232
REMARK   98  A    between atoms: _242  and  _244
REMARK   99  A    between atoms: _244  and  _245
REMARK  100  A    between atoms: _244  and  _247
REMARK  101  A    between atoms: _247  and  _248
REMARK  102  A    between atoms: _251  and  _253
REMARK  103  A    between atoms: _253  and  _254
REMARK  104  A    between atoms: _253  and  _256
REMARK  105  A    between atoms: _256  and  _257
REMARK  106  A    between atoms: _257  and  _258
REMARK  107  A    between atoms: _258  and  _259
REMARK  108  A    between atoms: _259  and  _260
REMARK  109  A    between atoms: _264  and  _266
REMARK  110  A    between atoms: _266  and  _267
REMARK  111  A    between atoms: _266  and  _269
REMARK  112  A    between atoms: _269  and  _270
REMARK  113  A    between atoms: _276  and  _278
REMARK  114  A    between atoms: _278  and  _279
REMARK  115  A    between atoms: _278  and  _281
REMARK  116  A    between atoms: _281  and  _282
REMARK  117  A    between atoms: _288  and  _290
REMARK  118  A    between atoms: _290  and  _291
REMARK  119  A    between atoms: _290  and  _293
REMARK  120  A    between atoms: _293  and  _294
REMARK  121  A    between atoms: _297  and  _299
REMARK  122  A    between atoms: _299  and  _300
REMARK  123  A    between atoms: _299  and  _302
REMARK  124  A    between atoms: _302  and  _303
REMARK  125  A    between atoms: _305  and  _307
REMARK  126  A    between atoms: _307  and  _308
REMARK  127  A    between atoms: _307  and  _310
REMARK  128  A    between atoms: _310  and  _311
REMARK  129  A    between atoms: _321  and  _323
REMARK  130  A    between atoms: _323  and  _324
REMARK  131  A    between atoms: _326  and  _328
REMARK  132  A    between atoms: _328  and  _329
REMARK  133  A    between atoms: _328  and  _331
REMARK  134  A    between atoms: _331  and  _332
REMARK  135  A    between atoms: _335  and  _337
REMARK  136  A    between atoms: _337  and  _338
REMARK  137  A    between atoms: _337  and  _340
REMARK  138  A    between atoms: _340  and  _341
REMARK  139  A    between atoms: _344  and  _346
REMARK  140  A    between atoms: _346  and  _347
REMARK  141  A    between atoms: _349  and  _351
REMARK  142  A    between atoms: _351  and  _352
REMARK  143  A    between atoms: _355  and  _357
REMARK  144  A    between atoms: _357  and  _358
REMARK  145  A    between atoms: _357  and  _360
REMARK  146  A    between atoms: _360  and  _361
REMARK  147  A    between atoms: _366  and  _367
REMARK  148  A    between atoms: _369  and  _371
REMARK  149  A    between atoms: _371  and  _372
REMARK  150  A    between atoms: _371  and  _374
REMARK  151  A    between atoms: _374  and  _375
REMARK  152  A    between atoms: _375  and  _376
REMARK  153  A    between atoms: _379  and  _381
REMARK  154  A    between atoms: _381  and  _382
REMARK  155  A    between atoms: _381  and  _384
REMARK  156  A    between atoms: _384  and  _385
REMARK  157  A    between atoms: _388  and  _390
REMARK  158  A    between atoms: _390  and  _391
REMARK  159  A    between atoms: _394  and  _396
REMARK  160  A    between atoms: _396  and  _397
REMARK  161  A    between atoms: _396  and  _399
REMARK  162  A    between atoms: _399  and  _400
REMARK  163  A    between atoms: _400  and  _401
REMARK  164  A    between atoms: _401  and  _402
REMARK  165  A    between atoms: _411  and  _413
REMARK  166  A    between atoms: _413  and  _414
REMARK  167  A    between atoms: _413  and  _416
REMARK  168  A    between atoms: _416  and  _417
REMARK  169  A    between atoms: _420  and  _422
REMARK  170  A    between atoms: _422  and  _423
REMARK  171  A    between atoms: _422  and  _425
REMARK  172  A    between atoms: _425  and  _426
REMARK  173  A    between atoms: _436  and  _438
REMARK  174  A    between atoms: _438  and  _439
REMARK  175  A    between atoms: _438  and  _441
REMARK  176  A    between atoms: _441  and  _442
REMARK  177  A    between atoms: _447  and  _448
REMARK  178  A    between atoms: _450  and  _452
REMARK  179  A    between atoms: _452  and  _453
REMARK  180  A    between atoms: _452  and  _455
REMARK  181  A    between atoms: _455  and  _456
REMARK  182  A    between atoms: _461  and  _462
REMARK  183  A    between atoms: _464  and  _466
REMARK  184  A    between atoms: _466  and  _467
REMARK  185  A    between atoms: _466  and  _469
REMARK  186  A    between atoms: _469  and  _470
REMARK  187  A    between atoms: _470  and  _471
REMARK  188  A    between atoms: _471  and  _472
REMARK  189  A    between atoms: _472  and  _473
REMARK  190  A    between atoms: _477  and  _479
REMARK  191  A    between atoms: _479  and  _480
REMARK  192  A    between atoms: _479  and  _482
REMARK  193  A    between atoms: _482  and  _483
REMARK  194  A    between atoms: _486  and  _488
REMARK  195  A    between atoms: _488  and  _489
REMARK  196  A    between atoms: _488  and  _491
REMARK  197  A    between atoms: _494  and  _496
REMARK  198  A    between atoms: _496  and  _497
REMARK  199  A    between atoms: _496  and  _499
REMARK  200  A    between atoms: _499  and  _500
REMARK  201  A    between atoms: _503  and  _505
REMARK  202  A    between atoms: _505  and  _506
REMARK  203  A    between atoms: _505  and  _508
REMARK  204  A    between atoms: _508  and  _509
REMARK  205  A    between atoms: _511  and  _513
REMARK  206  A    between atoms: _513  and  _514
REMARK  207  A    between atoms: _516  and  _518
REMARK  208  A    between atoms: _518  and  _519
REMARK  209  A    between atoms: _518  and  _521
REMARK  210  A    between atoms: _521  and  _522
REMARK  211  A    between atoms: _525  and  _527
REMARK  212  A    between atoms: _527  and  _528
REMARK  213  A    between atoms: _527  and  _530
REMARK  214  A    between atoms: _530  and  _531
REMARK  215  A    between atoms: _534  and  _536
REMARK  216  A    between atoms: _536  and  _537
REMARK  217  A    between atoms: _536  and  _539
REMARK  218  A    between atoms: _539  and  _540
REMARK  219  A    between atoms: _545  and  _547
REMARK  220  A    between atoms: _547  and  _548
REMARK  221  A    between atoms: _547  and  _550
REMARK  222  A    between atoms: _550  and  _551
REMARK  223  A    between atoms: _554  and  _556
REMARK  224  A    between atoms: _556  and  _557
REMARK  225  A    between atoms: _556  and  _559
REMARK  226  A    between atoms: _559  and  _560
REMARK  227  A    between atoms: _560  and  _561
REMARK  228  A    between atoms: _561  and  _562
REMARK  229  A    between atoms: _571  and  _573
REMARK  230  A    between atoms: _573  and  _574
REMARK  231  A    between atoms: _573  and  _576
REMARK  232  A    between atoms: _576  and  _577
REMARK  233  A    between atoms: _580  and  _582
REMARK  234  A    between atoms: _582  and  _583
REMARK  235  A    between atoms: _585  and  _587
REMARK  236  A    between atoms: _587  and  _588
REMARK  237  A    between atoms: _587  and  _590
REMARK  238  A    between atoms: _590  and  _591
REMARK  239  A    between atoms: _591  and  _592
REMARK  240  A    between atoms: _592  and  _593
REMARK  241  A    between atoms: _602  and  _604
REMARK  242  A    between atoms: _604  and  _605
REMARK  243  A    between atoms: _604  and  _607
REMARK  244  A    between atoms: _607  and  _608
REMARK  245  A    between atoms: _608  and  _609
REMARK  246  A    between atoms: _609  and  _610
REMARK  247  A    between atoms: _610  and  _611
REMARK  248  A    between atoms: _615  and  _617
REMARK  249  A    between atoms: _617  and  _618
REMARK  250  A    between atoms: _617  and  _620
REMARK  251  A    between atoms: _620  and  _621
REMARK  252  A    between atoms: _627  and  _629
REMARK  253  A    between atoms: _629  and  _630
REMARK  254  A    between atoms: _633  and  _635
REMARK  255  A    between atoms: _635  and  _636
REMARK  256  A    between atoms: _635  and  _638
REMARK  257  A    between atoms: _638  and  _639
REMARK  258  A    between atoms: _642  and  _644
REMARK  259  A    between atoms: _644  and  _645
REMARK  260  A    between atoms: _644  and  _647
REMARK  261  A    between atoms: _647  and  _648
REMARK  262  A    between atoms: _650  and  _652
REMARK  263  A    between atoms: _652  and  _653
REMARK  264  A    between atoms: _652  and  _655
REMARK  265  A    between atoms: _655  and  _656
REMARK  266  A    between atoms: _656  and  _657
REMARK  267  A    between atoms: _662  and  _664
REMARK  268  A    between atoms: _664  and  _665
REMARK  269  A    between atoms: _664  and  _667
REMARK  270  A    between atoms: _667  and  _668
REMARK  271  A    between atoms: _670  and  _672
REMARK  272  A    between atoms: _672  and  _673
REMARK  273  A    between atoms: _672  and  _675
REMARK  274  A    between atoms: _675  and  _676
REMARK  275  A    between atoms: _679  and  _681
REMARK  276  A    between atoms: _681  and  _682
REMARK  277  A    between atoms: _684  and  _686
REMARK  278  A    between atoms: _686  and  _687
REMARK  279  A    between atoms: _686  and  _689
REMARK  280  A    between atoms: _689  and  _690
REMARK  281  A    between atoms: _693  and  _695
REMARK  282  A    between atoms: _695  and  _696
REMARK  283  A    between atoms: _695  and  _698
REMARK  284  A    between atoms: _701  and  _703
REMARK  285  A    between atoms: _703  and  _704
REMARK  286  A    between atoms: _706  and  _708
REMARK  287  A    between atoms: _708  and  _709
REMARK  288  A    between atoms: _712  and  _714
REMARK  289  A    between atoms: _714  and  _715
REMARK  290  A    between atoms: _714  and  _717
REMARK  291  A    between atoms: _720  and  _722
REMARK  292  A    between atoms: _722  and  _723
REMARK  293  A    between atoms: _722  and  _725
REMARK  294  A    between atoms: _725  and  _726
REMARK  295  A    between atoms: _726  and  _727
REMARK  296  A    between atoms: _729  and  _731
REMARK  297  A    between atoms: _731  and  _732
REMARK  298  A    between atoms: _731  and  _734
REMARK  299  A    between atoms: _734  and  _735
REMARK  300  A    between atoms: _735  and  _736
REMARK                            x       y       z     vdW  Elec       q    Type
REMARK                         _______ _______ _______ _____ _____    ______ ____
ROOT
ATOM      1  O   HOH     1      33.628  -4.399  14.775  0.00  0.00    +0.000 OA
ENDROOT
TORSDOF 0
REMARK  Name = ../refined-set-2016/4gid/4gid_pocket.pdb
REMARK  300 active torsions:
REMARK  status: ('A' for Active; 'I' for Inactive)
REMARK    1  A    between atoms: _1  and  _3
REMARK    2  A    between atoms: _3  and  _4
REMARK    3  A    between atoms: _6  and  _8
REMARK    4  A    between atoms: _8  and  _9
REMARK    5  A    between atoms: _8  and  _11
REMARK    6  A    between atoms: _11  and  _12
REMARK    7  A    between atoms: _12  and  _13
REMARK    8  A    between atoms: _13  and  _14
REMARK    9  A    between atoms: _14  and  _15
REMARK   10  A    between atoms: _19  and  _21
REMARK   11  A    between atoms: _21  and  _22
REMARK   12  A    between atoms: _21  and  _24
REMARK   13  A    between atoms: _24  and  _25
REMARK   14  A    between atoms: _27  and  _29
REMARK   15  A    between atoms: _29  and  _30
REMARK   16  A    between atoms: _32  and  _34
REMARK   17  A    between atoms: _34  and  _35
REMARK   18  A    between atoms: _34  and  _37
REMARK   19  A    between atoms: _37  and  _38
REMARK   20  A    between atoms: _38  and  _39
REMARK   21  A    between atoms: _44  and  _46
REMARK   22  A    between atoms: _46  and  _47
REMARK   23  A    between atoms: _49  and  _51
REMARK   24  A    between atoms: _51  and  _52
REMARK   25  A    between atoms: _51  and  _54
REMARK   26  A    between atoms: _54  and  _55
REMARK   27  A    between atoms: _60  and  _61
REMARK   28  A    between atoms: _63  and  _65
REMARK   29  A    between atoms: _65  and  _66
REMARK   30  A    between atoms: _65  and  _68
REMARK   31  A    between atoms: _68  and  _69
REMARK   32  A    between atoms: _74  and  _75
REMARK   33  A    between atoms: _77  and  _79
REMARK   34  A    between atoms: _79  and  _80
REMARK   35  A    between atoms: _79  and  _82
REMARK   36  A    between atoms: _82  and  _83
REMARK   37  A    between atoms: _86  and  _88
REMARK   38  A    between atoms: _88  and  _89
REMARK   39  A    between atoms: _88  and  _91
REMARK   40  A    between atoms: _94  and  _96
REMARK   41  A    between atoms: _96  and  _97
REMARK   42  A    between atoms: _96  and  _99
REMARK   43  A    between atoms: _99  and  _100
REMARK   44  A    between atoms: _103  and  _105
REMARK   45  A    between atoms: _105  and  _106
REMARK   46  A    between atoms: _105  and  _108
REMARK   47  A    between atoms: _108  and  _109
REMARK   48  A    between atoms: _112  and  _114
REMARK   49  A    between atoms: _114  and  _115
REMARK   50  A    between atoms: _117  and  _119
REMARK   51  A    between atoms: _119  and  _120
REMARK   52  A    between atoms: _119  and  _122
REMARK   53  A    between atoms: _122  and  _123
REMARK   54  A    between atoms: _125  and  _127
REMARK   55  A    between atoms: _127  and  _128
REMARK   56  A    between atoms: _127  and  _130
REMARK   57  A    between atoms: _130  and  _131
REMARK   58  A    between atoms: _133  and  _135
REMARK   59  A    between atoms: _135  and  _136
REMARK   60  A    between atoms: _135  and  _138
REMARK   61  A    between atoms: _138  and  _139
REMARK   62  A    between atoms: _144  and  _146
REMARK   63  A    between atoms: _146  and  _147
REMARK   64  A    between atoms: _146  and  _149
REMARK   65  A    between atoms: _149  and  _150
REMARK   66  A    between atoms: _155  and  _156
REMARK   67  A    between atoms: _158  and  _160
REMARK   68  A    between atoms: _160  and  _161
REMARK   69  A    between atoms: _160  and  _163
REMARK   70  A    between atoms: _167  and  _168
REMARK   71  A    between atoms: _173  and  _175
REMARK   72  A    between atoms: _175  and  _176
REMARK   73  A    between atoms: _175  and  _178
REMARK   74  A    between atoms: _178  and  _179
REMARK   75  A    between atoms: _184  and  _185
REMARK   76  A    between atoms: _187  and  _189
REMARK   77  A    between atoms: _189  and  _190
REMARK   78  A    between atoms: _189  and  _192
REMARK   79  A    between atoms: _192  and  _193
REMARK   80  A    between atoms: _196  and  _198
REMARK   81  A    between atoms: _198  and  _199
REMARK   82  A    between atoms: _198  and  _201
REMARK   83  A    between atoms: _201  and  _202
REMARK   84  A    between atoms: _202  and  _203
REMARK   85  A    between atoms: _208  and  _210
REMARK   86  A    between atoms: _210  and  _211
REMARK   87  A    between atoms: _213  and  _215
REMARK   88  A    between atoms: _215  and  _216
REMARK   89  A    between atoms: _215  and  _218
REMARK   90  A    between atoms: _218  and  _219
REMARK   91  A    between atoms: _219  and  _220
REMARK   92  A    between atoms: _220  and  _221
REMARK   93  A    between atoms: _221  and  _222
REMARK   94  A    between atoms: _226  and  _228
REMARK   95  A    between atoms: _228  and  _229
REMARK   96  A    between atoms: _228  and  _231
REMARK   97  A    between atoms: _231  and  _232
REMARK   98  A    between atoms: _242  and  _244
REMARK   99  A    between atoms: _244  and  _245
REMARK  100  A    between atoms: _244  and  _247
REMARK  101  A    between atoms: _247  and  _248
REMARK  102  A    between atoms: _251  and  _253
REMARK  103  A    between atoms: _253  and  _254
REMARK  104  A    between atoms: _253  and  _256
REMARK  105  A    between atoms: _256  and  _257
REMARK  106  A    between atoms: _257  and  _258
REMARK  107  A    between atoms: _258  and  _259
REMARK  108  A    between atoms: _259  and  _260
REMARK  109  A    between atoms: _264  and  _266
REMARK  110  A    between atoms: _266  and  _267
REMARK  111  A    between atoms: _266  and  _269
REMARK  112  A    between atoms: _269  and  _270
REMARK  113  A    between atoms: _276  and  _278
REMARK  114  A    between atoms: _278  and  _279
REMARK  115  A    between atoms: _278  and  _281
REMARK  116  A    between atoms: _281  and  _282
REMARK  117  A    between atoms: _288  and  _290
REMARK  118  A    between atoms: _290  and  _291
REMARK  119  A    between atoms: _290  and  _293
REMARK  120  A    between atoms: _293  and  _294
REMARK  121  A    between atoms: _297  and  _299
REMARK  122  A    between atoms: _299  and  _300
REMARK  123  A    between atoms: _299  and  _302
REMARK  124  A    between atoms: _302  and  _303
REMARK  125  A    between atoms: _305  and  _307
REMARK  126  A    between atoms: _307  and  _308
REMARK  127  A    between atoms: _307  and  _310
REMARK  128  A    between atoms: _310  and  _311
REMARK  129  A    between atoms: _321  and  _323
REMARK  130  A    between atoms: _323  and  _324
REMARK  131  A    between atoms: _326  and  _328
REMARK  132  A    between atoms: _328  and  _329
REMARK  133  A    between atoms: _328  and  _331
REMARK  134  A    between atoms: _331  and  _332
REMARK  135  A    between atoms: _335  and  _337
REMARK  136  A    between atoms: _337  and  _338
REMARK  137  A    between atoms: _337  and  _340
REMARK  138  A    between atoms: _340  and  _341
REMARK  139  A    between atoms: _344  and  _346
REMARK  140  A    between atoms: _346  and  _347
REMARK  141  A    between atoms: _349  and  _351
REMARK  142  A    between atoms: _351  and  _352
REMARK  143  A    between atoms: _355  and  _357
REMARK  144  A    between atoms: _357  and  _358
REMARK  145  A    between atoms: _357  and  _360
REMARK  146  A    between atoms: _360  and  _361
REMARK  147  A    between atoms: _366  and  _367
REMARK  148  A    between atoms: _369  and  _371
REMARK  149  A    between atoms: _371  and  _372
REMARK  150  A    between atoms: _371  and  _374
REMARK  151  A    between atoms: _374  and  _375
REMARK  152  A    between atoms: _375  and  _376
REMARK  153  A    between atoms: _379  and  _381
REMARK  154  A    between atoms: _381  and  _382
REMARK  155  A    between atoms: _381  and  _384
REMARK  156  A    between atoms: _384  and  _385
REMARK  157  A    between atoms: _388  and  _390
REMARK  158  A    between atoms: _390  and  _391
REMARK  159  A    between atoms: _394  and  _396
REMARK  160  A    between atoms: _396  and  _397
REMARK  161  A    between atoms: _396  and  _399
REMARK  162  A    between atoms: _399  and  _400
REMARK  163  A    between atoms: _400  and  _401
REMARK  164  A    between atoms: _401  and  _402
REMARK  165  A    between atoms: _411  and  _413
REMARK  166  A    between atoms: _413  and  _414
REMARK  167  A    between atoms: _413  and  _416
REMARK  168  A    between atoms: _416  and  _417
REMARK  169  A    between atoms: _420  and  _422
REMARK  170  A    between atoms: _422  and  _423
REMARK  171  A    between atoms: _422  and  _425
REMARK  172  A    between atoms: _425  and  _426
REMARK  173  A    between atoms: _436  and  _438
REMARK  174  A    between atoms: _438  and  _439
REMARK  175  A    between atoms: _438  and  _441
REMARK  176  A    between atoms: _441  and  _442
REMARK  177  A    between atoms: _447  and  _448
REMARK  178  A    between atoms: _450  and  _452
REMARK  179  A    between atoms: _452  and  _453
REMARK  180  A    between atoms: _452  and  _455
REMARK  181  A    between atoms: _455  and  _456
REMARK  182  A    between atoms: _461  and  _462
REMARK  183  A    between atoms: _464  and  _466
REMARK  184  A    between atoms: _466  and  _467
REMARK  185  A    between atoms: _466  and  _469
REMARK  186  A    between atoms: _469  and  _470
REMARK  187  A    between atoms: _470  and  _471
REMARK  188  A    between atoms: _471  and  _472
REMARK  189  A    between atoms: _472  and  _473
REMARK  190  A    between atoms: _477  and  _479
REMARK  191  A    between atoms: _479  and  _480
REMARK  192  A    between atoms: _479  and  _482
REMARK  193  A    between atoms: _482  and  _483
REMARK  194  A    between atoms: _486  and  _488
REMARK  195  A    between atoms: _488  and  _489
REMARK  196  A    between atoms: _488  and  _491
REMARK  197  A    between atoms: _494  and  _496
REMARK  198  A    between atoms: _496  and  _497
REMARK  199  A    between atoms: _496  and  _499
REMARK  200  A    between atoms: _499  and  _500
REMARK  201  A    between atoms: _503  and  _505
REMARK  202  A    between atoms: _505  and  _506
REMARK  203  A    between atoms: _505  and  _508
REMARK  204  A    between atoms: _508  and  _509
REMARK  205  A    between atoms: _511  and  _513
REMARK  206  A    between atoms: _513  and  _514
REMARK  207  A    between atoms: _516  and  _518
REMARK  208  A    between atoms: _518  and  _519
REMARK  209  A    between atoms: _518  and  _521
REMARK  210  A    between atoms: _521  and  _522
REMARK  211  A    between atoms: _525  and  _527
REMARK  212  A    between atoms: _527  and  _528
REMARK  213  A    between atoms: _527  and  _530
REMARK  214  A    between atoms: _530  and  _531
REMARK  215  A    between atoms: _534  and  _536
REMARK  216  A    between atoms: _536  and  _537
REMARK  217  A    between atoms: _536  and  _539
REMARK  218  A    between atoms: _539  and  _540
REMARK  219  A    between atoms: _545  and  _547
REMARK  220  A    between atoms: _547  and  _548
REMARK  221  A    between atoms: _547  and  _550
REMARK  222  A    between atoms: _550  and  _551
REMARK  223  A    between atoms: _554  and  _556
REMARK  224  A    between atoms: _556  and  _557
REMARK  225  A    between atoms: _556  and  _559
REMARK  226  A    between atoms: _559  and  _560
REMARK  227  A    between atoms: _560  and  _561
REMARK  228  A    between atoms: _561  and  _562
REMARK  229  A    between atoms: _571  and  _573
REMARK  230  A    between atoms: _573  and  _574
REMARK  231  A    between atoms: _573  and  _576
REMARK  232  A    between atoms: _576  and  _577
REMARK  233  A    between atoms: _580  and  _582
REMARK  234  A    between atoms: _582  and  _583
REMARK  235  A    between atoms: _585  and  _587
REMARK  236  A    between atoms: _587  and  _588
REMARK  237  A    between atoms: _587  and  _590
REMARK  238  A    between atoms: _590  and  _591
REMARK  239  A    between atoms: _591  and  _592
REMARK  240  A    between atoms: _592  and  _593
REMARK  241  A    between atoms: _602  and  _604
REMARK  242  A    between atoms: _604  and  _605
REMARK  243  A    between atoms: _604  and  _607
REMARK  244  A    between atoms: _607  and  _608
REMARK  245  A    between atoms: _608  and  _609
REMARK  246  A    between atoms: _609  and  _610
REMARK  247  A    between atoms: _610  and  _611
REMARK  248  A    between atoms: _615  and  _617
REMARK  249  A    between atoms: _617  and  _618
REMARK  250  A    between atoms: _617  and  _620
REMARK  251  A    between atoms: _620  and  _621
REMARK  252  A    between atoms: _627  and  _629
REMARK  253  A    between atoms: _629  and  _630
REMARK  254  A    between atoms: _633  and  _635
REMARK  255  A    between atoms: _635  and  _636
REMARK  256  A    between atoms: _635  and  _638
REMARK  257  A    between atoms: _638  and  _639
REMARK  258  A    between atoms: _642  and  _644
REMARK  259  A    between atoms: _644  and  _645
REMARK  260  A    between atoms: _644  and  _647
REMARK  261  A    between atoms: _647  and  _648
REMARK  262  A    between atoms: _650  and  _652
REMARK  263  A    between atoms: _652  and  _653
REMARK  264  A    between atoms: _652  and  _655
REMARK  265  A    between atoms: _655  and  _656
REMARK  266  A    between atoms: _656  and  _657
REMARK  267  A    between atoms: _662  and  _664
REMARK  268  A    between atoms: _664  and  _665
REMARK  269  A    between atoms: _664  and  _667
REMARK  270  A    between atoms: _667  and  _668
REMARK  271  A    between atoms: _670  and  _672
REMARK  272  A    between atoms: _672  and  _673
REMARK  273  A    between atoms: _672  and  _675
REMARK  274  A    between atoms: _675  and  _676
REMARK  275  A    between atoms: _679  and  _681
REMARK  276  A    between atoms: _681  and  _682
REMARK  277  A    between atoms: _684  and  _686
REMARK  278  A    between atoms: _686  and  _687
REMARK  279  A    between atoms: _686  and  _689
REMARK  280  A    between atoms: _689  and  _690
REMARK  281  A    between atoms: _693  and  _695
REMARK  282  A    between atoms: _695  and  _696
REMARK  283  A    between atoms: _695  and  _698
REMARK  284  A    between atoms: _701  and  _703
REMARK  285  A    between atoms: _703  and  _704
REMARK  286  A    between atoms: _706  and  _708
REMARK  287  A    between atoms: _708  and  _709
REMARK  288  A    between atoms: _712  and  _714
REMARK  289  A    between atoms: _714  and  _715
REMARK  290  A    between atoms: _714  and  _717
REMARK  291  A    between atoms: _720  and  _722
REMARK  292  A    between atoms: _722  and  _723
REMARK  293  A    between atoms: _722  and  _725
REMARK  294  A    between atoms: _725  and  _726
REMARK  295  A    between atoms: _726  and  _727
REMARK  296  A    between atoms: _729  and  _731
REMARK  297  A    between atoms: _731  and  _732
REMARK  298  A    between atoms: _731  and  _734
REMARK  299  A    between atoms: _734  and  _735
REMARK  300  A    between atoms: _735  and  _736
REMARK                            x       y       z     vdW  Elec       q    Type
REMARK                         _______ _______ _______ _____ _____    ______ ____
ROOT
ATOM      1  O   HOH     1      39.002 -10.215  14.011  0.00  0.00    +0.000 OA
ENDROOT
TORSDOF 0
REMARK  Name = ../refined-set-2016/4gid/4gid_pocket.pdb
REMARK  300 active torsions:
REMARK  status: ('A' for Active; 'I' for Inactive)
REMARK    1  A    between atoms: _1  and  _3
REMARK    2  A    between atoms: _3  and  _4
REMARK    3  A    between atoms: _6  and  _8
REMARK    4  A    between atoms: _8  and  _9
REMARK    5  A    between atoms: _8  and  _11
REMARK    6  A    between atoms: _11  and  _12
REMARK    7  A    between atoms: _12  and  _13
REMARK    8  A    between atoms: _13  and  _14
REMARK    9  A    between atoms: _14  and  _15
REMARK   10  A    between atoms: _19  and  _21
REMARK   11  A    between atoms: _21  and  _22
REMARK   12  A    between atoms: _21  and  _24
REMARK   13  A    between atoms: _24  and  _25
REMARK   14  A    between atoms: _27  and  _29
REMARK   15  A    between atoms: _29  and  _30
REMARK   16  A    between atoms: _32  and  _34
REMARK   17  A    between atoms: _34  and  _35
REMARK   18  A    between atoms: _34  and  _37
REMARK   19  A    between atoms: _37  and  _38
REMARK   20  A    between atoms: _38  and  _39
REMARK   21  A    between atoms: _44  and  _46
REMARK   22  A    between atoms: _46  and  _47
REMARK   23  A    between atoms: _49  and  _51
REMARK   24  A    between atoms: _51  and  _52
REMARK   25  A    between atoms: _51  and  _54
REMARK   26  A    between atoms: _54  and  _55
REMARK   27  A    between atoms: _60  and  _61
REMARK   28  A    between atoms: _63  and  _65
REMARK   29  A    between atoms: _65  and  _66
REMARK   30  A    between atoms: _65  and  _68
REMARK   31  A    between atoms: _68  and  _69
REMARK   32  A    between atoms: _74  and  _75
REMARK   33  A    between atoms: _77  and  _79
REMARK   34  A    between atoms: _79  and  _80
REMARK   35  A    between atoms: _79  and  _82
REMARK   36  A    between atoms: _82  and  _83
REMARK   37  A    between atoms: _86  and  _88
REMARK   38  A    between atoms: _88  and  _89
REMARK   39  A    between atoms: _88  and  _91
REMARK   40  A    between atoms: _94  and  _96
REMARK   41  A    between atoms: _96  and  _97
REMARK   42  A    between atoms: _96  and  _99
REMARK   43  A    between atoms: _99  and  _100
REMARK   44  A    between atoms: _103  and  _105
REMARK   45  A    between atoms: _105  and  _106
REMARK   46  A    between atoms: _105  and  _108
REMARK   47  A    between atoms: _108  and  _109
REMARK   48  A    between atoms: _112  and  _114
REMARK   49  A    between atoms: _114  and  _115
REMARK   50  A    between atoms: _117  and  _119
REMARK   51  A    between atoms: _119  and  _120
REMARK   52  A    between atoms: _119  and  _122
REMARK   53  A    between atoms: _122  and  _123
REMARK   54  A    between atoms: _125  and  _127
REMARK   55  A    between atoms: _127  and  _128
REMARK   56  A    between atoms: _127  and  _130
REMARK   57  A    between atoms: _130  and  _131
REMARK   58  A    between atoms: _133  and  _135
REMARK   59  A    between atoms: _135  and  _136
REMARK   60  A    between atoms: _135  and  _138
REMARK   61  A    between atoms: _138  and  _139
REMARK   62  A    between atoms: _144  and  _146
REMARK   63  A    between atoms: _146  and  _147
REMARK   64  A    between atoms: _146  and  _149
REMARK   65  A    between atoms: _149  and  _150
REMARK   66  A    between atoms: _155  and  _156
REMARK   67  A    between atoms: _158  and  _160
REMARK   68  A    between atoms: _160  and  _161
REMARK   69  A    between atoms: _160  and  _163
REMARK   70  A    between atoms: _167  and  _168
REMARK   71  A    between atoms: _173  and  _175
REMARK   72  A    between atoms: _175  and  _176
REMARK   73  A    between atoms: _175  and  _178
REMARK   74  A    between atoms: _178  and  _179
REMARK   75  A    between atoms: _184  and  _185
REMARK   76  A    between atoms: _187  and  _189
REMARK   77  A    between atoms: _189  and  _190
REMARK   78  A    between atoms: _189  and  _192
REMARK   79  A    between atoms: _192  and  _193
REMARK   80  A    between atoms: _196  and  _198
REMARK   81  A    between atoms: _198  and  _199
REMARK   82  A    between atoms: _198  and  _201
REMARK   83  A    between atoms: _201  and  _202
REMARK   84  A    between atoms: _202  and  _203
REMARK   85  A    between atoms: _208  and  _210
REMARK   86  A    between atoms: _210  and  _211
REMARK   87  A    between atoms: _213  and  _215
REMARK   88  A    between atoms: _215  and  _216
REMARK   89  A    between atoms: _215  and  _218
REMARK   90  A    between atoms: _218  and  _219
REMARK   91  A    between atoms: _219  and  _220
REMARK   92  A    between atoms: _220  and  _221
REMARK   93  A    between atoms: _221  and  _222
REMARK   94  A    between atoms: _226  and  _228
REMARK   95  A    between atoms: _228  and  _229
REMARK   96  A    between atoms: _228  and  _231
REMARK   97  A    between atoms: _231  and  _232
REMARK   98  A    between atoms: _242  and  _244
REMARK   99  A    between atoms: _244  and  _245
REMARK  100  A    between atoms: _244  and  _247
REMARK  101  A    between atoms: _247  and  _248
REMARK  102  A    between atoms: _251  and  _253
REMARK  103  A    between atoms: _253  and  _254
REMARK  104  A    between atoms: _253  and  _256
REMARK  105  A    between atoms: _256  and  _257
REMARK  106  A    between atoms: _257  and  _258
REMARK  107  A    between atoms: _258  and  _259
REMARK  108  A    between atoms: _259  and  _260
REMARK  109  A    between atoms: _264  and  _266
REMARK  110  A    between atoms: _266  and  _267
REMARK  111  A    between atoms: _266  and  _269
REMARK  112  A    between atoms: _269  and  _270
REMARK  113  A    between atoms: _276  and  _278
REMARK  114  A    between atoms: _278  and  _279
REMARK  115  A    between atoms: _278  and  _281
REMARK  116  A    between atoms: _281  and  _282
REMARK  117  A    between atoms: _288  and  _290
REMARK  118  A    between atoms: _290  and  _291
REMARK  119  A    between atoms: _290  and  _293
REMARK  120  A    between atoms: _293  and  _294
REMARK  121  A    between atoms: _297  and  _299
REMARK  122  A    between atoms: _299  and  _300
REMARK  123  A    between atoms: _299  and  _302
REMARK  124  A    between atoms: _302  and  _303
REMARK  125  A    between atoms: _305  and  _307
REMARK  126  A    between atoms: _307  and  _308
REMARK  127  A    between atoms: _307  and  _310
REMARK  128  A    between atoms: _310  and  _311
REMARK  129  A    between atoms: _321  and  _323
REMARK  130  A    between atoms: _323  and  _324
REMARK  131  A    between atoms: _326  and  _328
REMARK  132  A    between atoms: _328  and  _329
REMARK  133  A    between atoms: _328  and  _331
REMARK  134  A    between atoms: _331  and  _332
REMARK  135  A    between atoms: _335  and  _337
REMARK  136  A    between atoms: _337  and  _338
REMARK  137  A    between atoms: _337  and  _340
REMARK  138  A    between atoms: _340  and  _341
REMARK  139  A    between atoms: _344  and  _346
REMARK  140  A    between atoms: _346  and  _347
REMARK  141  A    between atoms: _349  and  _351
REMARK  142  A    between atoms: _351  and  _352
REMARK  143  A    between atoms: _355  and  _357
REMARK  144  A    between atoms: _357  and  _358
REMARK  145  A    between atoms: _357  and  _360
REMARK  146  A    between atoms: _360  and  _361
REMARK  147  A    between atoms: _366  and  _367
REMARK  148  A    between atoms: _369  and  _371
REMARK  149  A    between atoms: _371  and  _372
REMARK  150  A    between atoms: _371  and  _374
REMARK  151  A    between atoms: _374  and  _375
REMARK  152  A    between atoms: _375  and  _376
REMARK  153  A    between atoms: _379  and  _381
REMARK  154  A    between atoms: _381  and  _382
REMARK  155  A    between atoms: _381  and  _384
REMARK  156  A    between atoms: _384  and  _385
REMARK  157  A    between atoms: _388  and  _390
REMARK  158  A    between atoms: _390  and  _391
REMARK  159  A    between atoms: _394  and  _396
REMARK  160  A    between atoms: _396  and  _397
REMARK  161  A    between atoms: _396  and  _399
REMARK  162  A    between atoms: _399  and  _400
REMARK  163  A    between atoms: _400  and  _401
REMARK  164  A    between atoms: _401  and  _402
REMARK  165  A    between atoms: _411  and  _413
REMARK  166  A    between atoms: _413  and  _414
REMARK  167  A    between atoms: _413  and  _416
REMARK  168  A    between atoms: _416  and  _417
REMARK  169  A    between atoms: _420  and  _422
REMARK  170  A    between atoms: _422  and  _423
REMARK  171  A    between atoms: _422  and  _425
REMARK  172  A    between atoms: _425  and  _426
REMARK  173  A    between atoms: _436  and  _438
REMARK  174  A    between atoms: _438  and  _439
REMARK  175  A    between atoms: _438  and  _441
REMARK  176  A    between atoms: _441  and  _442
REMARK  177  A    between atoms: _447  and  _448
REMARK  178  A    between atoms: _450  and  _452
REMARK  179  A    between atoms: _452  and  _453
REMARK  180  A    between atoms: _452  and  _455
REMARK  181  A    between atoms: _455  and  _456
REMARK  182  A    between atoms: _461  and  _462
REMARK  183  A    between atoms: _464  and  _466
REMARK  184  A    between atoms: _466  and  _467
REMARK  185  A    between atoms: _466  and  _469
REMARK  186  A    between atoms: _469  and  _470
REMARK  187  A    between atoms: _470  and  _471
REMARK  188  A    between atoms: _471  and  _472
REMARK  189  A    between atoms: _472  and  _473
REMARK  190  A    between atoms: _477  and  _479
REMARK  191  A    between atoms: _479  and  _480
REMARK  192  A    between atoms: _479  and  _482
REMARK  193  A    between atoms: _482  and  _483
REMARK  194  A    between atoms: _486  and  _488
REMARK  195  A    between atoms: _488  and  _489
REMARK  196  A    between atoms: _488  and  _491
REMARK  197  A    between atoms: _494  and  _496
REMARK  198  A    between atoms: _496  and  _497
REMARK  199  A    between atoms: _496  and  _499
REMARK  200  A    between atoms: _499  and  _500
REMARK  201  A    between atoms: _503  and  _505
REMARK  202  A    between atoms: _505  and  _506
REMARK  203  A    between atoms: _505  and  _508
REMARK  204  A    between atoms: _508  and  _509
REMARK  205  A    between atoms: _511  and  _513
REMARK  206  A    between atoms: _513  and  _514
REMARK  207  A    between atoms: _516  and  _518
REMARK  208  A    between atoms: _518  and  _519
REMARK  209  A    between atoms: _518  and  _521
REMARK  210  A    between atoms: _521  and  _522
REMARK  211  A    between atoms: _525  and  _527
REMARK  212  A    between atoms: _527  and  _528
REMARK  213  A    between atoms: _527  and  _530
REMARK  214  A    between atoms: _530  and  _531
REMARK  215  A    between atoms: _534  and  _536
REMARK  216  A    between atoms: _536  and  _537
REMARK  217  A    between atoms: _536  and  _539
REMARK  218  A    between atoms: _539  and  _540
REMARK  219  A    between atoms: _545  and  _547
REMARK  220  A    between atoms: _547  and  _548
REMARK  221  A    between atoms: _547  and  _550
REMARK  222  A    between atoms: _550  and  _551
REMARK  223  A    between atoms: _554  and  _556
REMARK  224  A    between atoms: _556  and  _557
REMARK  225  A    between atoms: _556  and  _559
REMARK  226  A    between atoms: _559  and  _560
REMARK  227  A    between atoms: _560  and  _561
REMARK  228  A    between atoms: _561  and  _562
REMARK  229  A    between atoms: _571  and  _573
REMARK  230  A    between atoms: _573  and  _574
REMARK  231  A    between atoms: _573  and  _576
REMARK  232  A    between atoms: _576  and  _577
REMARK  233  A    between atoms: _580  and  _582
REMARK  234  A    between atoms: _582  and  _583
REMARK  235  A    between atoms: _585  and  _587
REMARK  236  A    between atoms: _587  and  _588
REMARK  237  A    between atoms: _587  and  _590
REMARK  238  A    between atoms: _590  and  _591
REMARK  239  A    between atoms: _591  and  _592
REMARK  240  A    between atoms: _592  and  _593
REMARK  241  A    between atoms: _602  and  _604
REMARK  242  A    between atoms: _604  and  _605
REMARK  243  A    between atoms: _604  and  _607
REMARK  244  A    between atoms: _607  and  _608
REMARK  245  A    between atoms: _608  and  _609
REMARK  246  A    between atoms: _609  and  _610
REMARK  247  A    between atoms: _610  and  _611
REMARK  248  A    between atoms: _615  and  _617
REMARK  249  A    between atoms: _617  and  _618
REMARK  250  A    between atoms: _617  and  _620
REMARK  251  A    between atoms: _620  and  _621
REMARK  252  A    between atoms: _627  and  _629
REMARK  253  A    between atoms: _629  and  _630
REMARK  254  A    between atoms: _633  and  _635
REMARK  255  A    between atoms: _635  and  _636
REMARK  256  A    between atoms: _635  and  _638
REMARK  257  A    between atoms: _638  and  _639
REMARK  258  A    between atoms: _642  and  _644
REMARK  259  A    between atoms: _644  and  _645
REMARK  260  A    between atoms: _644  and  _647
REMARK  261  A    between atoms: _647  and  _648
REMARK  262  A    between atoms: _650  and  _652
REMARK  263  A    between atoms: _652  and  _653
REMARK  264  A    between atoms: _652  and  _655
REMARK  265  A    between atoms: _655  and  _656
REMARK  266  A    between atoms: _656  and  _657
REMARK  267  A    between atoms: _662  and  _664
REMARK  268  A    between atoms: _664  and  _665
REMARK  269  A    between atoms: _664  and  _667
REMARK  270  A    between atoms: _667  and  _668
REMARK  271  A    between atoms: _670  and  _672
REMARK  272  A    between atoms: _672  and  _673
REMARK  273  A    between atoms: _672  and  _675
REMARK  274  A    between atoms: _675  and  _676
REMARK  275  A    between atoms: _679  and  _681
REMARK  276  A    between atoms: _681  and  _682
REMARK  277  A    between atoms: _684  and  _686
REMARK  278  A    between atoms: _686  and  _687
REMARK  279  A    between atoms: _686  and  _689
REMARK  280  A    between atoms: _689  and  _690
REMARK  281  A    between atoms: _693  and  _695
REMARK  282  A    between atoms: _695  and  _696
REMARK  283  A    between atoms: _695  and  _698
REMARK  284  A    between atoms: _701  and  _703
REMARK  285  A    between atoms: _703  and  _704
REMARK  286  A    between atoms: _706  and  _708
REMARK  287  A    between atoms: _708  and  _709
REMARK  288  A    between atoms: _712  and  _714
REMARK  289  A    between atoms: _714  and  _715
REMARK  290  A    between atoms: _714  and  _717
REMARK  291  A    between atoms: _720  and  _722
REMARK  292  A    between atoms: _722  and  _723
REMARK  293  A    between atoms: _722  and  _725
REMARK  294  A    between atoms: _725  and  _726
REMARK  295  A    between atoms: _726  and  _727
REMARK  296  A    between atoms: _729  and  _731
REMARK  297  A    between atoms: _731  and  _732
REMARK  298  A    between atoms: _731  and  _734
REMARK  299  A    between atoms: _734  and  _735
REMARK  300  A    between atoms: _735  and  _736
REMARK                            x       y       z     vdW  Elec       q    Type
REMARK                         _______ _______ _______ _____ _____    ______ ____
ROOT
ATOM      1  O   HOH     1      31.171 -10.831   6.364  0.00  0.00    +0.000 OA
ENDROOT
TORSDOF 0
REMARK  Name = ../refined-set-2016/4gid/4gid_pocket.pdb
REMARK  300 active torsions:
REMARK  status: ('A' for Active; 'I' for Inactive)
REMARK    1  A    between atoms: _1  and  _3
REMARK    2  A    between atoms: _3  and  _4
REMARK    3  A    between atoms: _6  and  _8
REMARK    4  A    between atoms: _8  and  _9
REMARK    5  A    between atoms: _8  and  _11
REMARK    6  A    between atoms: _11  and  _12
REMARK    7  A    between atoms: _12  and  _13
REMARK    8  A    between atoms: _13  and  _14
REMARK    9  A    between atoms: _14  and  _15
REMARK   10  A    between atoms: _19  and  _21
REMARK   11  A    between atoms: _21  and  _22
REMARK   12  A    between atoms: _21  and  _24
REMARK   13  A    between atoms: _24  and  _25
REMARK   14  A    between atoms: _27  and  _29
REMARK   15  A    between atoms: _29  and  _30
REMARK   16  A    between atoms: _32  and  _34
REMARK   17  A    between atoms: _34  and  _35
REMARK   18  A    between atoms: _34  and  _37
REMARK   19  A    between atoms: _37  and  _38
REMARK   20  A    between atoms: _38  and  _39
REMARK   21  A    between atoms: _44  and  _46
REMARK   22  A    between atoms: _46  and  _47
REMARK   23  A    between atoms: _49  and  _51
REMARK   24  A    between atoms: _51  and  _52
REMARK   25  A    between atoms: _51  and  _54
REMARK   26  A    between atoms: _54  and  _55
REMARK   27  A    between atoms: _60  and  _61
REMARK   28  A    between atoms: _63  and  _65
REMARK   29  A    between atoms: _65  and  _66
REMARK   30  A    between atoms: _65  and  _68
REMARK   31  A    between atoms: _68  and  _69
REMARK   32  A    between atoms: _74  and  _75
REMARK   33  A    between atoms: _77  and  _79
REMARK   34  A    between atoms: _79  and  _80
REMARK   35  A    between atoms: _79  and  _82
REMARK   36  A    between atoms: _82  and  _83
REMARK   37  A    between atoms: _86  and  _88
REMARK   38  A    between atoms: _88  and  _89
REMARK   39  A    between atoms: _88  and  _91
REMARK   40  A    between atoms: _94  and  _96
REMARK   41  A    between atoms: _96  and  _97
REMARK   42  A    between atoms: _96  and  _99
REMARK   43  A    between atoms: _99  and  _100
REMARK   44  A    between atoms: _103  and  _105
REMARK   45  A    between atoms: _105  and  _106
REMARK   46  A    between atoms: _105  and  _108
REMARK   47  A    between atoms: _108  and  _109
REMARK   48  A    between atoms: _112  and  _114
REMARK   49  A    between atoms: _114  and  _115
REMARK   50  A    between atoms: _117  and  _119
REMARK   51  A    between atoms: _119  and  _120
REMARK   52  A    between atoms: _119  and  _122
REMARK   53  A    between atoms: _122  and  _123
REMARK   54  A    between atoms: _125  and  _127
REMARK   55  A    between atoms: _127  and  _128
REMARK   56  A    between atoms: _127  and  _130
REMARK   57  A    between atoms: _130  and  _131
REMARK   58  A    between atoms: _133  and  _135
REMARK   59  A    between atoms: _135  and  _136
REMARK   60  A    between atoms: _135  and  _138
REMARK   61  A    between atoms: _138  and  _139
REMARK   62  A    between atoms: _144  and  _146
REMARK   63  A    between atoms: _146  and  _147
REMARK   64  A    between atoms: _146  and  _149
REMARK   65  A    between atoms: _149  and  _150
REMARK   66  A    between atoms: _155  and  _156
REMARK   67  A    between atoms: _158  and  _160
REMARK   68  A    between atoms: _160  and  _161
REMARK   69  A    between atoms: _160  and  _163
REMARK   70  A    between atoms: _167  and  _168
REMARK   71  A    between atoms: _173  and  _175
REMARK   72  A    between atoms: _175  and  _176
REMARK   73  A    between atoms: _175  and  _178
REMARK   74  A    between atoms: _178  and  _179
REMARK   75  A    between atoms: _184  and  _185
REMARK   76  A    between atoms: _187  and  _189
REMARK   77  A    between atoms: _189  and  _190
REMARK   78  A    between atoms: _189  and  _192
REMARK   79  A    between atoms: _192  and  _193
REMARK   80  A    between atoms: _196  and  _198
REMARK   81  A    between atoms: _198  and  _199
REMARK   82  A    between atoms: _198  and  _201
REMARK   83  A    between atoms: _201  and  _202
REMARK   84  A    between atoms: _202  and  _203
REMARK   85  A    between atoms: _208  and  _210
REMARK   86  A    between atoms: _210  and  _211
REMARK   87  A    between atoms: _213  and  _215
REMARK   88  A    between atoms: _215  and  _216
REMARK   89  A    between atoms: _215  and  _218
REMARK   90  A    between atoms: _218  and  _219
REMARK   91  A    between atoms: _219  and  _220
REMARK   92  A    between atoms: _220  and  _221
REMARK   93  A    between atoms: _221  and  _222
REMARK   94  A    between atoms: _226  and  _228
REMARK   95  A    between atoms: _228  and  _229
REMARK   96  A    between atoms: _228  and  _231
REMARK   97  A    between atoms: _231  and  _232
REMARK   98  A    between atoms: _242  and  _244
REMARK   99  A    between atoms: _244  and  _245
REMARK  100  A    between atoms: _244  and  _247
REMARK  101  A    between atoms: _247  and  _248
REMARK  102  A    between atoms: _251  and  _253
REMARK  103  A    between atoms: _253  and  _254
REMARK  104  A    between atoms: _253  and  _256
REMARK  105  A    between atoms: _256  and  _257
REMARK  106  A    between atoms: _257  and  _258
REMARK  107  A    between atoms: _258  and  _259
REMARK  108  A    between atoms: _259  and  _260
REMARK  109  A    between atoms: _264  and  _266
REMARK  110  A    between atoms: _266  and  _267
REMARK  111  A    between atoms: _266  and  _269
REMARK  112  A    between atoms: _269  and  _270
REMARK  113  A    between atoms: _276  and  _278
REMARK  114  A    between atoms: _278  and  _279
REMARK  115  A    between atoms: _278  and  _281
REMARK  116  A    between atoms: _281  and  _282
REMARK  117  A    between atoms: _288  and  _290
REMARK  118  A    between atoms: _290  and  _291
REMARK  119  A    between atoms: _290  and  _293
REMARK  120  A    between atoms: _293  and  _294
REMARK  121  A    between atoms: _297  and  _299
REMARK  122  A    between atoms: _299  and  _300
REMARK  123  A    between atoms: _299  and  _302
REMARK  124  A    between atoms: _302  and  _303
REMARK  125  A    between atoms: _305  and  _307
REMARK  126  A    between atoms: _307  and  _308
REMARK  127  A    between atoms: _307  and  _310
REMARK  128  A    between atoms: _310  and  _311
REMARK  129  A    between atoms: _321  and  _323
REMARK  130  A    between atoms: _323  and  _324
REMARK  131  A    between atoms: _326  and  _328
REMARK  132  A    between atoms: _328  and  _329
REMARK  133  A    between atoms: _328  and  _331
REMARK  134  A    between atoms: _331  and  _332
REMARK  135  A    between atoms: _335  and  _337
REMARK  136  A    between atoms: _337  and  _338
REMARK  137  A    between atoms: _337  and  _340
REMARK  138  A    between atoms: _340  and  _341
REMARK  139  A    between atoms: _344  and  _346
REMARK  140  A    between atoms: _346  and  _347
REMARK  141  A    between atoms: _349  and  _351
REMARK  142  A    between atoms: _351  and  _352
REMARK  143  A    between atoms: _355  and  _357
REMARK  144  A    between atoms: _357  and  _358
REMARK  145  A    between atoms: _357  and  _360
REMARK  146  A    between atoms: _360  and  _361
REMARK  147  A    between atoms: _366  and  _367
REMARK  148  A    between atoms: _369  and  _371
REMARK  149  A    between atoms: _371  and  _372
REMARK  150  A    between atoms: _371  and  _374
REMARK  151  A    between atoms: _374  and  _375
REMARK  152  A    between atoms: _375  and  _376
REMARK  153  A    between atoms: _379  and  _381
REMARK  154  A    between atoms: _381  and  _382
REMARK  155  A    between atoms: _381  and  _384
REMARK  156  A    between atoms: _384  and  _385
REMARK  157  A    between atoms: _388  and  _390
REMARK  158  A    between atoms: _390  and  _391
REMARK  159  A    between atoms: _394  and  _396
REMARK  160  A    between atoms: _396  and  _397
REMARK  161  A    between atoms: _396  and  _399
REMARK  162  A    between atoms: _399  and  _400
REMARK  163  A    between atoms: _400  and  _401
REMARK  164  A    between atoms: _401  and  _402
REMARK  165  A    between atoms: _411  and  _413
REMARK  166  A    between atoms: _413  and  _414
REMARK  167  A    between atoms: _413  and  _416
REMARK  168  A    between atoms: _416  and  _417
REMARK  169  A    between atoms: _420  and  _422
REMARK  170  A    between atoms: _422  and  _423
REMARK  171  A    between atoms: _422  and  _425
REMARK  172  A    between atoms: _425  and  _426
REMARK  173  A    between atoms: _436  and  _438
REMARK  174  A    between atoms: _438  and  _439
REMARK  175  A    between atoms: _438  and  _441
REMARK  176  A    between atoms: _441  and  _442
REMARK  177  A    between atoms: _447  and  _448
REMARK  178  A    between atoms: _450  and  _452
REMARK  179  A    between atoms: _452  and  _453
REMARK  180  A    between atoms: _452  and  _455
REMARK  181  A    between atoms: _455  and  _456
REMARK  182  A    between atoms: _461  and  _462
REMARK  183  A    between atoms: _464  and  _466
REMARK  184  A    between atoms: _466  and  _467
REMARK  185  A    between atoms: _466  and  _469
REMARK  186  A    between atoms: _469  and  _470
REMARK  187  A    between atoms: _470  and  _471
REMARK  188  A    between atoms: _471  and  _472
REMARK  189  A    between atoms: _472  and  _473
REMARK  190  A    between atoms: _477  and  _479
REMARK  191  A    between atoms: _479  and  _480
REMARK  192  A    between atoms: _479  and  _482
REMARK  193  A    between atoms: _482  and  _483
REMARK  194  A    between atoms: _486  and  _488
REMARK  195  A    between atoms: _488  and  _489
REMARK  196  A    between atoms: _488  and  _491
REMARK  197  A    between atoms: _494  and  _496
REMARK  198  A    between atoms: _496  and  _497
REMARK  199  A    between atoms: _496  and  _499
REMARK  200  A    between atoms: _499  and  _500
REMARK  201  A    between atoms: _503  and  _505
REMARK  202  A    between atoms: _505  and  _506
REMARK  203  A    between atoms: _505  and  _508
REMARK  204  A    between atoms: _508  and  _509
REMARK  205  A    between atoms: _511  and  _513
REMARK  206  A    between atoms: _513  and  _514
REMARK  207  A    between atoms: _516  and  _518
REMARK  208  A    between atoms: _518  and  _519
REMARK  209  A    between atoms: _518  and  _521
REMARK  210  A    between atoms: _521  and  _522
REMARK  211  A    between atoms: _525  and  _527
REMARK  212  A    between atoms: _527  and  _528
REMARK  213  A    between atoms: _527  and  _530
REMARK  214  A    between atoms: _530  and  _531
REMARK  215  A    between atoms: _534  and  _536
REMARK  216  A    between atoms: _536  and  _537
REMARK  217  A    between atoms: _536  and  _539
REMARK  218  A    between atoms: _539  and  _540
REMARK  219  A    between atoms: _545  and  _547
REMARK  220  A    between atoms: _547  and  _548
REMARK  221  A    between atoms: _547  and  _550
REMARK  222  A    between atoms: _550  and  _551
REMARK  223  A    between atoms: _554  and  _556
REMARK  224  A    between atoms: _556  and  _557
REMARK  225  A    between atoms: _556  and  _559
REMARK  226  A    between atoms: _559  and  _560
REMARK  227  A    between atoms: _560  and  _561
REMARK  228  A    between atoms: _561  and  _562
REMARK  229  A    between atoms: _571  and  _573
REMARK  230  A    between atoms: _573  and  _574
REMARK  231  A    between atoms: _573  and  _576
REMARK  232  A    between atoms: _576  and  _577
REMARK  233  A    between atoms: _580  and  _582
REMARK  234  A    between atoms: _582  and  _583
REMARK  235  A    between atoms: _585  and  _587
REMARK  236  A    between atoms: _587  and  _588
REMARK  237  A    between atoms: _587  and  _590
REMARK  238  A    between atoms: _590  and  _591
REMARK  239  A    between atoms: _591  and  _592
REMARK  240  A    between atoms: _592  and  _593
REMARK  241  A    between atoms: _602  and  _604
REMARK  242  A    between atoms: _604  and  _605
REMARK  243  A    between atoms: _604  and  _607
REMARK  244  A    between atoms: _607  and  _608
REMARK  245  A    between atoms: _608  and  _609
REMARK  246  A    between atoms: _609  and  _610
REMARK  247  A    between atoms: _610  and  _611
REMARK  248  A    between atoms: _615  and  _617
REMARK  249  A    between atoms: _617  and  _618
REMARK  250  A    between atoms: _617  and  _620
REMARK  251  A    between atoms: _620  and  _621
REMARK  252  A    between atoms: _627  and  _629
REMARK  253  A    between atoms: _629  and  _630
REMARK  254  A    between atoms: _633  and  _635
REMARK  255  A    between atoms: _635  and  _636
REMARK  256  A    between atoms: _635  and  _638
REMARK  257  A    between atoms: _638  and  _639
REMARK  258  A    between atoms: _642  and  _644
REMARK  259  A    between atoms: _644  and  _645
REMARK  260  A    between atoms: _644  and  _647
REMARK  261  A    between atoms: _647  and  _648
REMARK  262  A    between atoms: _650  and  _652
REMARK  263  A    between atoms: _652  and  _653
REMARK  264  A    between atoms: _652  and  _655
REMARK  265  A    between atoms: _655  and  _656
REMARK  266  A    between atoms: _656  and  _657
REMARK  267  A    between atoms: _662  and  _664
REMARK  268  A    between atoms: _664  and  _665
REMARK  269  A    between atoms: _664  and  _667
REMARK  270  A    between atoms: _667  and  _668
REMARK  271  A    between atoms: _670  and  _672
REMARK  272  A    between atoms: _672  and  _673
REMARK  273  A    between atoms: _672  and  _675
REMARK  274  A    between atoms: _675  and  _676
REMARK  275  A    between atoms: _679  and  _681
REMARK  276  A    between atoms: _681  and  _682
REMARK  277  A    between atoms: _684  and  _686
REMARK  278  A    between atoms: _686  and  _687
REMARK  279  A    between atoms: _686  and  _689
REMARK  280  A    between atoms: _689  and  _690
REMARK  281  A    between atoms: _693  and  _695
REMARK  282  A    between atoms: _695  and  _696
REMARK  283  A    between atoms: _695  and  _698
REMARK  284  A    between atoms: _701  and  _703
REMARK  285  A    between atoms: _703  and  _704
REMARK  286  A    between atoms: _706  and  _708
REMARK  287  A    between atoms: _708  and  _709
REMARK  288  A    between atoms: _712  and  _714
REMARK  289  A    between atoms: _714  and  _715
REMARK  290  A    between atoms: _714  and  _717
REMARK  291  A    between atoms: _720  and  _722
REMARK  292  A    between atoms: _722  and  _723
REMARK  293  A    between atoms: _722  and  _725
REMARK  294  A    between atoms: _725  and  _726
REMARK  295  A    between atoms: _726  and  _727
REMARK  296  A    between atoms: _729  and  _731
REMARK  297  A    between atoms: _731  and  _732
REMARK  298  A    between atoms: _731  and  _734
REMARK  299  A    between atoms: _734  and  _735
REMARK  300  A    between atoms: _735  and  _736
REMARK                            x       y       z     vdW  Elec       q    Type
REMARK                         _______ _______ _______ _____ _____    ______ ____
ROOT
ATOM      1  O   HOH     1      44.780   2.863   4.586  0.00  0.00    +0.000 OA
ENDROOT
TORSDOF 0
REMARK  Name = ../refined-set-2016/4gid/4gid_pocket.pdb
REMARK  300 active torsions:
REMARK  status: ('A' for Active; 'I' for Inactive)
REMARK    1  A    between atoms: _1  and  _3
REMARK    2  A    between atoms: _3  and  _4
REMARK    3  A    between atoms: _6  and  _8
REMARK    4  A    between atoms: _8  and  _9
REMARK    5  A    between atoms: _8  and  _11
REMARK    6  A    between atoms: _11  and  _12
REMARK    7  A    between atoms: _12  and  _13
REMARK    8  A    between atoms: _13  and  _14
REMARK    9  A    between atoms: _14  and  _15
REMARK   10  A    between atoms: _19  and  _21
REMARK   11  A    between atoms: _21  and  _22
REMARK   12  A    between atoms: _21  and  _24
REMARK   13  A    between atoms: _24  and  _25
REMARK   14  A    between atoms: _27  and  _29
REMARK   15  A    between atoms: _29  and  _30
REMARK   16  A    between atoms: _32  and  _34
REMARK   17  A    between atoms: _34  and  _35
REMARK   18  A    between atoms: _34  and  _37
REMARK   19  A    between atoms: _37  and  _38
REMARK   20  A    between atoms: _38  and  _39
REMARK   21  A    between atoms: _44  and  _46
REMARK   22  A    between atoms: _46  and  _47
REMARK   23  A    between atoms: _49  and  _51
REMARK   24  A    between atoms: _51  and  _52
REMARK   25  A    between atoms: _51  and  _54
REMARK   26  A    between atoms: _54  and  _55
REMARK   27  A    between atoms: _60  and  _61
REMARK   28  A    between atoms: _63  and  _65
REMARK   29  A    between atoms: _65  and  _66
REMARK   30  A    between atoms: _65  and  _68
REMARK   31  A    between atoms: _68  and  _69
REMARK   32  A    between atoms: _74  and  _75
REMARK   33  A    between atoms: _77  and  _79
REMARK   34  A    between atoms: _79  and  _80
REMARK   35  A    between atoms: _79  and  _82
REMARK   36  A    between atoms: _82  and  _83
REMARK   37  A    between atoms: _86  and  _88
REMARK   38  A    between atoms: _88  and  _89
REMARK   39  A    between atoms: _88  and  _91
REMARK   40  A    between atoms: _94  and  _96
REMARK   41  A    between atoms: _96  and  _97
REMARK   42  A    between atoms: _96  and  _99
REMARK   43  A    between atoms: _99  and  _100
REMARK   44  A    between atoms: _103  and  _105
REMARK   45  A    between atoms: _105  and  _106
REMARK   46  A    between atoms: _105  and  _108
REMARK   47  A    between atoms: _108  and  _109
REMARK   48  A    between atoms: _112  and  _114
REMARK   49  A    between atoms: _114  and  _115
REMARK   50  A    between atoms: _117  and  _119
REMARK   51  A    between atoms: _119  and  _120
REMARK   52  A    between atoms: _119  and  _122
REMARK   53  A    between atoms: _122  and  _123
REMARK   54  A    between atoms: _125  and  _127
REMARK   55  A    between atoms: _127  and  _128
REMARK   56  A    between atoms: _127  and  _130
REMARK   57  A    between atoms: _130  and  _131
REMARK   58  A    between atoms: _133  and  _135
REMARK   59  A    between atoms: _135  and  _136
REMARK   60  A    between atoms: _135  and  _138
REMARK   61  A    between atoms: _138  and  _139
REMARK   62  A    between atoms: _144  and  _146
REMARK   63  A    between atoms: _146  and  _147
REMARK   64  A    between atoms: _146  and  _149
REMARK   65  A    between atoms: _149  and  _150
REMARK   66  A    between atoms: _155  and  _156
REMARK   67  A    between atoms: _158  and  _160
REMARK   68  A    between atoms: _160  and  _161
REMARK   69  A    between atoms: _160  and  _163
REMARK   70  A    between atoms: _167  and  _168
REMARK   71  A    between atoms: _173  and  _175
REMARK   72  A    between atoms: _175  and  _176
REMARK   73  A    between atoms: _175  and  _178
REMARK   74  A    between atoms: _178  and  _179
REMARK   75  A    between atoms: _184  and  _185
REMARK   76  A    between atoms: _187  and  _189
REMARK   77  A    between atoms: _189  and  _190
REMARK   78  A    between atoms: _189  and  _192
REMARK   79  A    between atoms: _192  and  _193
REMARK   80  A    between atoms: _196  and  _198
REMARK   81  A    between atoms: _198  and  _199
REMARK   82  A    between atoms: _198  and  _201
REMARK   83  A    between atoms: _201  and  _202
REMARK   84  A    between atoms: _202  and  _203
REMARK   85  A    between atoms: _208  and  _210
REMARK   86  A    between atoms: _210  and  _211
REMARK   87  A    between atoms: _213  and  _215
REMARK   88  A    between atoms: _215  and  _216
REMARK   89  A    between atoms: _215  and  _218
REMARK   90  A    between atoms: _218  and  _219
REMARK   91  A    between atoms: _219  and  _220
REMARK   92  A    between atoms: _220  and  _221
REMARK   93  A    between atoms: _221  and  _222
REMARK   94  A    between atoms: _226  and  _228
REMARK   95  A    between atoms: _228  and  _229
REMARK   96  A    between atoms: _228  and  _231
REMARK   97  A    between atoms: _231  and  _232
REMARK   98  A    between atoms: _242  and  _244
REMARK   99  A    between atoms: _244  and  _245
REMARK  100  A    between atoms: _244  and  _247
REMARK  101  A    between atoms: _247  and  _248
REMARK  102  A    between atoms: _251  and  _253
REMARK  103  A    between atoms: _253  and  _254
REMARK  104  A    between atoms: _253  and  _256
REMARK  105  A    between atoms: _256  and  _257
REMARK  106  A    between atoms: _257  and  _258
REMARK  107  A    between atoms: _258  and  _259
REMARK  108  A    between atoms: _259  and  _260
REMARK  109  A    between atoms: _264  and  _266
REMARK  110  A    between atoms: _266  and  _267
REMARK  111  A    between atoms: _266  and  _269
REMARK  112  A    between atoms: _269  and  _270
REMARK  113  A    between atoms: _276  and  _278
REMARK  114  A    between atoms: _278  and  _279
REMARK  115  A    between atoms: _278  and  _281
REMARK  116  A    between atoms: _281  and  _282
REMARK  117  A    between atoms: _288  and  _290
REMARK  118  A    between atoms: _290  and  _291
REMARK  119  A    between atoms: _290  and  _293
REMARK  120  A    between atoms: _293  and  _294
REMARK  121  A    between atoms: _297  and  _299
REMARK  122  A    between atoms: _299  and  _300
REMARK  123  A    between atoms: _299  and  _302
REMARK  124  A    between atoms: _302  and  _303
REMARK  125  A    between atoms: _305  and  _307
REMARK  126  A    between atoms: _307  and  _308
REMARK  127  A    between atoms: _307  and  _310
REMARK  128  A    between atoms: _310  and  _311
REMARK  129  A    between atoms: _321  and  _323
REMARK  130  A    between atoms: _323  and  _324
REMARK  131  A    between atoms: _326  and  _328
REMARK  132  A    between atoms: _328  and  _329
REMARK  133  A    between atoms: _328  and  _331
REMARK  134  A    between atoms: _331  and  _332
REMARK  135  A    between atoms: _335  and  _337
REMARK  136  A    between atoms: _337  and  _338
REMARK  137  A    between atoms: _337  and  _340
REMARK  138  A    between atoms: _340  and  _341
REMARK  139  A    between atoms: _344  and  _346
REMARK  140  A    between atoms: _346  and  _347
REMARK  141  A    between atoms: _349  and  _351
REMARK  142  A    between atoms: _351  and  _352
REMARK  143  A    between atoms: _355  and  _357
REMARK  144  A    between atoms: _357  and  _358
REMARK  145  A    between atoms: _357  and  _360
REMARK  146  A    between atoms: _360  and  _361
REMARK  147  A    between atoms: _366  and  _367
REMARK  148  A    between atoms: _369  and  _371
REMARK  149  A    between atoms: _371  and  _372
REMARK  150  A    between atoms: _371  and  _374
REMARK  151  A    between atoms: _374  and  _375
REMARK  152  A    between atoms: _375  and  _376
REMARK  153  A    between atoms: _379  and  _381
REMARK  154  A    between atoms: _381  and  _382
REMARK  155  A    between atoms: _381  and  _384
REMARK  156  A    between atoms: _384  and  _385
REMARK  157  A    between atoms: _388  and  _390
REMARK  158  A    between atoms: _390  and  _391
REMARK  159  A    between atoms: _394  and  _396
REMARK  160  A    between atoms: _396  and  _397
REMARK  161  A    between atoms: _396  and  _399
REMARK  162  A    between atoms: _399  and  _400
REMARK  163  A    between atoms: _400  and  _401
REMARK  164  A    between atoms: _401  and  _402
REMARK  165  A    between atoms: _411  and  _413
REMARK  166  A    between atoms: _413  and  _414
REMARK  167  A    between atoms: _413  and  _416
REMARK  168  A    between atoms: _416  and  _417
REMARK  169  A    between atoms: _420  and  _422
REMARK  170  A    between atoms: _422  and  _423
REMARK  171  A    between atoms: _422  and  _425
REMARK  172  A    between atoms: _425  and  _426
REMARK  173  A    between atoms: _436  and  _438
REMARK  174  A    between atoms: _438  and  _439
REMARK  175  A    between atoms: _438  and  _441
REMARK  176  A    between atoms: _441  and  _442
REMARK  177  A    between atoms: _447  and  _448
REMARK  178  A    between atoms: _450  and  _452
REMARK  179  A    between atoms: _452  and  _453
REMARK  180  A    between atoms: _452  and  _455
REMARK  181  A    between atoms: _455  and  _456
REMARK  182  A    between atoms: _461  and  _462
REMARK  183  A    between atoms: _464  and  _466
REMARK  184  A    between atoms: _466  and  _467
REMARK  185  A    between atoms: _466  and  _469
REMARK  186  A    between atoms: _469  and  _470
REMARK  187  A    between atoms: _470  and  _471
REMARK  188  A    between atoms: _471  and  _472
REMARK  189  A    between atoms: _472  and  _473
REMARK  190  A    between atoms: _477  and  _479
REMARK  191  A    between atoms: _479  and  _480
REMARK  192  A    between atoms: _479  and  _482
REMARK  193  A    between atoms: _482  and  _483
REMARK  194  A    between atoms: _486  and  _488
REMARK  195  A    between atoms: _488  and  _489
REMARK  196  A    between atoms: _488  and  _491
REMARK  197  A    between atoms: _494  and  _496
REMARK  198  A    between atoms: _496  and  _497
REMARK  199  A    between atoms: _496  and  _499
REMARK  200  A    between atoms: _499  and  _500
REMARK  201  A    between atoms: _503  and  _505
REMARK  202  A    between atoms: _505  and  _506
REMARK  203  A    between atoms: _505  and  _508
REMARK  204  A    between atoms: _508  and  _509
REMARK  205  A    between atoms: _511  and  _513
REMARK  206  A    between atoms: _513  and  _514
REMARK  207  A    between atoms: _516  and  _518
REMARK  208  A    between atoms: _518  and  _519
REMARK  209  A    between atoms: _518  and  _521
REMARK  210  A    between atoms: _521  and  _522
REMARK  211  A    between atoms: _525  and  _527
REMARK  212  A    between atoms: _527  and  _528
REMARK  213  A    between atoms: _527  and  _530
REMARK  214  A    between atoms: _530  and  _531
REMARK  215  A    between atoms: _534  and  _536
REMARK  216  A    between atoms: _536  and  _537
REMARK  217  A    between atoms: _536  and  _539
REMARK  218  A    between atoms: _539  and  _540
REMARK  219  A    between atoms: _545  and  _547
REMARK  220  A    between atoms: _547  and  _548
REMARK  221  A    between atoms: _547  and  _550
REMARK  222  A    between atoms: _550  and  _551
REMARK  223  A    between atoms: _554  and  _556
REMARK  224  A    between atoms: _556  and  _557
REMARK  225  A    between atoms: _556  and  _559
REMARK  226  A    between atoms: _559  and  _560
REMARK  227  A    between atoms: _560  and  _561
REMARK  228  A    between atoms: _561  and  _562
REMARK  229  A    between atoms: _571  and  _573
REMARK  230  A    between atoms: _573  and  _574
REMARK  231  A    between atoms: _573  and  _576
REMARK  232  A    between atoms: _576  and  _577
REMARK  233  A    between atoms: _580  and  _582
REMARK  234  A    between atoms: _582  and  _583
REMARK  235  A    between atoms: _585  and  _587
REMARK  236  A    between atoms: _587  and  _588
REMARK  237  A    between atoms: _587  and  _590
REMARK  238  A    between atoms: _590  and  _591
REMARK  239  A    between atoms: _591  and  _592
REMARK  240  A    between atoms: _592  and  _593
REMARK  241  A    between atoms: _602  and  _604
REMARK  242  A    between atoms: _604  and  _605
REMARK  243  A    between atoms: _604  and  _607
REMARK  244  A    between atoms: _607  and  _608
REMARK  245  A    between atoms: _608  and  _609
REMARK  246  A    between atoms: _609  and  _610
REMARK  247  A    between atoms: _610  and  _611
REMARK  248  A    between atoms: _615  and  _617
REMARK  249  A    between atoms: _617  and  _618
REMARK  250  A    between atoms: _617  and  _620
REMARK  251  A    between atoms: _620  and  _621
REMARK  252  A    between atoms: _627  and  _629
REMARK  253  A    between atoms: _629  and  _630
REMARK  254  A    between atoms: _633  and  _635
REMARK  255  A    between atoms: _635  and  _636
REMARK  256  A    between atoms: _635  and  _638
REMARK  257  A    between atoms: _638  and  _639
REMARK  258  A    between atoms: _642  and  _644
REMARK  259  A    between atoms: _644  and  _645
REMARK  260  A    between atoms: _644  and  _647
REMARK  261  A    between atoms: _647  and  _648
REMARK  262  A    between atoms: _650  and  _652
REMARK  263  A    between atoms: _652  and  _653
REMARK  264  A    between atoms: _652  and  _655
REMARK  265  A    between atoms: _655  and  _656
REMARK  266  A    between atoms: _656  and  _657
REMARK  267  A    between atoms: _662  and  _664
REMARK  268  A    between atoms: _664  and  _665
REMARK  269  A    between atoms: _664  and  _667
REMARK  270  A    between atoms: _667  and  _668
REMARK  271  A    between atoms: _670  and  _672
REMARK  272  A    between atoms: _672  and  _673
REMARK  273  A    between atoms: _672  and  _675
REMARK  274  A    between atoms: _675  and  _676
REMARK  275  A    between atoms: _679  and  _681
REMARK  276  A    between atoms: _681  and  _682
REMARK  277  A    between atoms: _684  and  _686
REMARK  278  A    between atoms: _686  and  _687
REMARK  279  A    between atoms: _686  and  _689
REMARK  280  A    between atoms: _689  and  _690
REMARK  281  A    between atoms: _693  and  _695
REMARK  282  A    between atoms: _695  and  _696
REMARK  283  A    between atoms: _695  and  _698
REMARK  284  A    between atoms: _701  and  _703
REMARK  285  A    between atoms: _703  and  _704
REMARK  286  A    between atoms: _706  and  _708
REMARK  287  A    between atoms: _708  and  _709
REMARK  288  A    between atoms: _712  and  _714
REMARK  289  A    between atoms: _714  and  _715
REMARK  290  A    between atoms: _714  and  _717
REMARK  291  A    between atoms: _720  and  _722
REMARK  292  A    between atoms: _722  and  _723
REMARK  293  A    between atoms: _722  and  _725
REMARK  294  A    between atoms: _725  and  _726
REMARK  295  A    between atoms: _726  and  _727
REMARK  296  A    between atoms: _729  and  _731
REMARK  297  A    between atoms: _731  and  _732
REMARK  298  A    between atoms: _731  and  _734
REMARK  299  A    between atoms: _734  and  _735
REMARK  300  A    between atoms: _735  and  _736
REMARK                            x       y       z     vdW  Elec       q    Type
REMARK                         _______ _______ _______ _____ _____    ______ ____
ROOT
ATOM      1  O   HOH     1      56.950  -2.477   6.774  0.00  0.00    +0.000 OA
ENDROOT
TORSDOF 0
REMARK  Name = ../refined-set-2016/4gid/4gid_pocket.pdb
REMARK  300 active torsions:
REMARK  status: ('A' for Active; 'I' for Inactive)
REMARK    1  A    between atoms: _1  and  _3
REMARK    2  A    between atoms: _3  and  _4
REMARK    3  A    between atoms: _6  and  _8
REMARK    4  A    between atoms: _8  and  _9
REMARK    5  A    between atoms: _8  and  _11
REMARK    6  A    between atoms: _11  and  _12
REMARK    7  A    between atoms: _12  and  _13
REMARK    8  A    between atoms: _13  and  _14
REMARK    9  A    between atoms: _14  and  _15
REMARK   10  A    between atoms: _19  and  _21
REMARK   11  A    between atoms: _21  and  _22
REMARK   12  A    between atoms: _21  and  _24
REMARK   13  A    between atoms: _24  and  _25
REMARK   14  A    between atoms: _27  and  _29
REMARK   15  A    between atoms: _29  and  _30
REMARK   16  A    between atoms: _32  and  _34
REMARK   17  A    between atoms: _34  and  _35
REMARK   18  A    between atoms: _34  and  _37
REMARK   19  A    between atoms: _37  and  _38
REMARK   20  A    between atoms: _38  and  _39
REMARK   21  A    between atoms: _44  and  _46
REMARK   22  A    between atoms: _46  and  _47
REMARK   23  A    between atoms: _49  and  _51
REMARK   24  A    between atoms: _51  and  _52
REMARK   25  A    between atoms: _51  and  _54
REMARK   26  A    between atoms: _54  and  _55
REMARK   27  A    between atoms: _60  and  _61
REMARK   28  A    between atoms: _63  and  _65
REMARK   29  A    between atoms: _65  and  _66
REMARK   30  A    between atoms: _65  and  _68
REMARK   31  A    between atoms: _68  and  _69
REMARK   32  A    between atoms: _74  and  _75
REMARK   33  A    between atoms: _77  and  _79
REMARK   34  A    between atoms: _79  and  _80
REMARK   35  A    between atoms: _79  and  _82
REMARK   36  A    between atoms: _82  and  _83
REMARK   37  A    between atoms: _86  and  _88
REMARK   38  A    between atoms: _88  and  _89
REMARK   39  A    between atoms: _88  and  _91
REMARK   40  A    between atoms: _94  and  _96
REMARK   41  A    between atoms: _96  and  _97
REMARK   42  A    between atoms: _96  and  _99
REMARK   43  A    between atoms: _99  and  _100
REMARK   44  A    between atoms: _103  and  _105
REMARK   45  A    between atoms: _105  and  _106
REMARK   46  A    between atoms: _105  and  _108
REMARK   47  A    between atoms: _108  and  _109
REMARK   48  A    between atoms: _112  and  _114
REMARK   49  A    between atoms: _114  and  _115
REMARK   50  A    between atoms: _117  and  _119
REMARK   51  A    between atoms: _119  and  _120
REMARK   52  A    between atoms: _119  and  _122
REMARK   53  A    between atoms: _122  and  _123
REMARK   54  A    between atoms: _125  and  _127
REMARK   55  A    between atoms: _127  and  _128
REMARK   56  A    between atoms: _127  and  _130
REMARK   57  A    between atoms: _130  and  _131
REMARK   58  A    between atoms: _133  and  _135
REMARK   59  A    between atoms: _135  and  _136
REMARK   60  A    between atoms: _135  and  _138
REMARK   61  A    between atoms: _138  and  _139
REMARK   62  A    between atoms: _144  and  _146
REMARK   63  A    between atoms: _146  and  _147
REMARK   64  A    between atoms: _146  and  _149
REMARK   65  A    between atoms: _149  and  _150
REMARK   66  A    between atoms: _155  and  _156
REMARK   67  A    between atoms: _158  and  _160
REMARK   68  A    between atoms: _160  and  _161
REMARK   69  A    between atoms: _160  and  _163
REMARK   70  A    between atoms: _167  and  _168
REMARK   71  A    between atoms: _173  and  _175
REMARK   72  A    between atoms: _175  and  _176
REMARK   73  A    between atoms: _175  and  _178
REMARK   74  A    between atoms: _178  and  _179
REMARK   75  A    between atoms: _184  and  _185
REMARK   76  A    between atoms: _187  and  _189
REMARK   77  A    between atoms: _189  and  _190
REMARK   78  A    between atoms: _189  and  _192
REMARK   79  A    between atoms: _192  and  _193
REMARK   80  A    between atoms: _196  and  _198
REMARK   81  A    between atoms: _198  and  _199
REMARK   82  A    between atoms: _198  and  _201
REMARK   83  A    between atoms: _201  and  _202
REMARK   84  A    between atoms: _202  and  _203
REMARK   85  A    between atoms: _208  and  _210
REMARK   86  A    between atoms: _210  and  _211
REMARK   87  A    between atoms: _213  and  _215
REMARK   88  A    between atoms: _215  and  _216
REMARK   89  A    between atoms: _215  and  _218
REMARK   90  A    between atoms: _218  and  _219
REMARK   91  A    between atoms: _219  and  _220
REMARK   92  A    between atoms: _220  and  _221
REMARK   93  A    between atoms: _221  and  _222
REMARK   94  A    between atoms: _226  and  _228
REMARK   95  A    between atoms: _228  and  _229
REMARK   96  A    between atoms: _228  and  _231
REMARK   97  A    between atoms: _231  and  _232
REMARK   98  A    between atoms: _242  and  _244
REMARK   99  A    between atoms: _244  and  _245
REMARK  100  A    between atoms: _244  and  _247
REMARK  101  A    between atoms: _247  and  _248
REMARK  102  A    between atoms: _251  and  _253
REMARK  103  A    between atoms: _253  and  _254
REMARK  104  A    between atoms: _253  and  _256
REMARK  105  A    between atoms: _256  and  _257
REMARK  106  A    between atoms: _257  and  _258
REMARK  107  A    between atoms: _258  and  _259
REMARK  108  A    between atoms: _259  and  _260
REMARK  109  A    between atoms: _264  and  _266
REMARK  110  A    between atoms: _266  and  _267
REMARK  111  A    between atoms: _266  and  _269
REMARK  112  A    between atoms: _269  and  _270
REMARK  113  A    between atoms: _276  and  _278
REMARK  114  A    between atoms: _278  and  _279
REMARK  115  A    between atoms: _278  and  _281
REMARK  116  A    between atoms: _281  and  _282
REMARK  117  A    between atoms: _288  and  _290
REMARK  118  A    between atoms: _290  and  _291
REMARK  119  A    between atoms: _290  and  _293
REMARK  120  A    between atoms: _293  and  _294
REMARK  121  A    between atoms: _297  and  _299
REMARK  122  A    between atoms: _299  and  _300
REMARK  123  A    between atoms: _299  and  _302
REMARK  124  A    between atoms: _302  and  _303
REMARK  125  A    between atoms: _305  and  _307
REMARK  126  A    between atoms: _307  and  _308
REMARK  127  A    between atoms: _307  and  _310
REMARK  128  A    between atoms: _310  and  _311
REMARK  129  A    between atoms: _321  and  _323
REMARK  130  A    between atoms: _323  and  _324
REMARK  131  A    between atoms: _326  and  _328
REMARK  132  A    between atoms: _328  and  _329
REMARK  133  A    between atoms: _328  and  _331
REMARK  134  A    between atoms: _331  and  _332
REMARK  135  A    between atoms: _335  and  _337
REMARK  136  A    between atoms: _337  and  _338
REMARK  137  A    between atoms: _337  and  _340
REMARK  138  A    between atoms: _340  and  _341
REMARK  139  A    between atoms: _344  and  _346
REMARK  140  A    between atoms: _346  and  _347
REMARK  141  A    between atoms: _349  and  _351
REMARK  142  A    between atoms: _351  and  _352
REMARK  143  A    between atoms: _355  and  _357
REMARK  144  A    between atoms: _357  and  _358
REMARK  145  A    between atoms: _357  and  _360
REMARK  146  A    between atoms: _360  and  _361
REMARK  147  A    between atoms: _366  and  _367
REMARK  148  A    between atoms: _369  and  _371
REMARK  149  A    between atoms: _371  and  _372
REMARK  150  A    between atoms: _371  and  _374
REMARK  151  A    between atoms: _374  and  _375
REMARK  152  A    between atoms: _375  and  _376
REMARK  153  A    between atoms: _379  and  _381
REMARK  154  A    between atoms: _381  and  _382
REMARK  155  A    between atoms: _381  and  _384
REMARK  156  A    between atoms: _384  and  _385
REMARK  157  A    between atoms: _388  and  _390
REMARK  158  A    between atoms: _390  and  _391
REMARK  159  A    between atoms: _394  and  _396
REMARK  160  A    between atoms: _396  and  _397
REMARK  161  A    between atoms: _396  and  _399
REMARK  162  A    between atoms: _399  and  _400
REMARK  163  A    between atoms: _400  and  _401
REMARK  164  A    between atoms: _401  and  _402
REMARK  165  A    between atoms: _411  and  _413
REMARK  166  A    between atoms: _413  and  _414
REMARK  167  A    between atoms: _413  and  _416
REMARK  168  A    between atoms: _416  and  _417
REMARK  169  A    between atoms: _420  and  _422
REMARK  170  A    between atoms: _422  and  _423
REMARK  171  A    between atoms: _422  and  _425
REMARK  172  A    between atoms: _425  and  _426
REMARK  173  A    between atoms: _436  and  _438
REMARK  174  A    between atoms: _438  and  _439
REMARK  175  A    between atoms: _438  and  _441
REMARK  176  A    between atoms: _441  and  _442
REMARK  177  A    between atoms: _447  and  _448
REMARK  178  A    between atoms: _450  and  _452
REMARK  179  A    between atoms: _452  and  _453
REMARK  180  A    between atoms: _452  and  _455
REMARK  181  A    between atoms: _455  and  _456
REMARK  182  A    between atoms: _461  and  _462
REMARK  183  A    between atoms: _464  and  _466
REMARK  184  A    between atoms: _466  and  _467
REMARK  185  A    between atoms: _466  and  _469
REMARK  186  A    between atoms: _469  and  _470
REMARK  187  A    between atoms: _470  and  _471
REMARK  188  A    between atoms: _471  and  _472
REMARK  189  A    between atoms: _472  and  _473
REMARK  190  A    between atoms: _477  and  _479
REMARK  191  A    between atoms: _479  and  _480
REMARK  192  A    between atoms: _479  and  _482
REMARK  193  A    between atoms: _482  and  _483
REMARK  194  A    between atoms: _486  and  _488
REMARK  195  A    between atoms: _488  and  _489
REMARK  196  A    between atoms: _488  and  _491
REMARK  197  A    between atoms: _494  and  _496
REMARK  198  A    between atoms: _496  and  _497
REMARK  199  A    between atoms: _496  and  _499
REMARK  200  A    between atoms: _499  and  _500
REMARK  201  A    between atoms: _503  and  _505
REMARK  202  A    between atoms: _505  and  _506
REMARK  203  A    between atoms: _505  and  _508
REMARK  204  A    between atoms: _508  and  _509
REMARK  205  A    between atoms: _511  and  _513
REMARK  206  A    between atoms: _513  and  _514
REMARK  207  A    between atoms: _516  and  _518
REMARK  208  A    between atoms: _518  and  _519
REMARK  209  A    between atoms: _518  and  _521
REMARK  210  A    between atoms: _521  and  _522
REMARK  211  A    between atoms: _525  and  _527
REMARK  212  A    between atoms: _527  and  _528
REMARK  213  A    between atoms: _527  and  _530
REMARK  214  A    between atoms: _530  and  _531
REMARK  215  A    between atoms: _534  and  _536
REMARK  216  A    between atoms: _536  and  _537
REMARK  217  A    between atoms: _536  and  _539
REMARK  218  A    between atoms: _539  and  _540
REMARK  219  A    between atoms: _545  and  _547
REMARK  220  A    between atoms: _547  and  _548
REMARK  221  A    between atoms: _547  and  _550
REMARK  222  A    between atoms: _550  and  _551
REMARK  223  A    between atoms: _554  and  _556
REMARK  224  A    between atoms: _556  and  _557
REMARK  225  A    between atoms: _556  and  _559
REMARK  226  A    between atoms: _559  and  _560
REMARK  227  A    between atoms: _560  and  _561
REMARK  228  A    between atoms: _561  and  _562
REMARK  229  A    between atoms: _571  and  _573
REMARK  230  A    between atoms: _573  and  _574
REMARK  231  A    between atoms: _573  and  _576
REMARK  232  A    between atoms: _576  and  _577
REMARK  233  A    between atoms: _580  and  _582
REMARK  234  A    between atoms: _582  and  _583
REMARK  235  A    between atoms: _585  and  _587
REMARK  236  A    between atoms: _587  and  _588
REMARK  237  A    between atoms: _587  and  _590
REMARK  238  A    between atoms: _590  and  _591
REMARK  239  A    between atoms: _591  and  _592
REMARK  240  A    between atoms: _592  and  _593
REMARK  241  A    between atoms: _602  and  _604
REMARK  242  A    between atoms: _604  and  _605
REMARK  243  A    between atoms: _604  and  _607
REMARK  244  A    between atoms: _607  and  _608
REMARK  245  A    between atoms: _608  and  _609
REMARK  246  A    between atoms: _609  and  _610
REMARK  247  A    between atoms: _610  and  _611
REMARK  248  A    between atoms: _615  and  _617
REMARK  249  A    between atoms: _617  and  _618
REMARK  250  A    between atoms: _617  and  _620
REMARK  251  A    between atoms: _620  and  _621
REMARK  252  A    between atoms: _627  and  _629
REMARK  253  A    between atoms: _629  and  _630
REMARK  254  A    between atoms: _633  and  _635
REMARK  255  A    between atoms: _635  and  _636
REMARK  256  A    between atoms: _635  and  _638
REMARK  257  A    between atoms: _638  and  _639
REMARK  258  A    between atoms: _642  and  _644
REMARK  259  A    between atoms: _644  and  _645
REMARK  260  A    between atoms: _644  and  _647
REMARK  261  A    between atoms: _647  and  _648
REMARK  262  A    between atoms: _650  and  _652
REMARK  263  A    between atoms: _652  and  _653
REMARK  264  A    between atoms: _652  and  _655
REMARK  265  A    between atoms: _655  and  _656
REMARK  266  A    between atoms: _656  and  _657
REMARK  267  A    between atoms: _662  and  _664
REMARK  268  A    between atoms: _664  and  _665
REMARK  269  A    between atoms: _664  and  _667
REMARK  270  A    between atoms: _667  and  _668
REMARK  271  A    between atoms: _670  and  _672
REMARK  272  A    between atoms: _672  and  _673
REMARK  273  A    between atoms: _672  and  _675
REMARK  274  A    between atoms: _675  and  _676
REMARK  275  A    between atoms: _679  and  _681
REMARK  276  A    between atoms: _681  and  _682
REMARK  277  A    between atoms: _684  and  _686
REMARK  278  A    between atoms: _686  and  _687
REMARK  279  A    between atoms: _686  and  _689
REMARK  280  A    between atoms: _689  and  _690
REMARK  281  A    between atoms: _693  and  _695
REMARK  282  A    between atoms: _695  and  _696
REMARK  283  A    between atoms: _695  and  _698
REMARK  284  A    between atoms: _701  and  _703
REMARK  285  A    between atoms: _703  and  _704
REMARK  286  A    between atoms: _706  and  _708
REMARK  287  A    between atoms: _708  and  _709
REMARK  288  A    between atoms: _712  and  _714
REMARK  289  A    between atoms: _714  and  _715
REMARK  290  A    between atoms: _714  and  _717
REMARK  291  A    between atoms: _720  and  _722
REMARK  292  A    between atoms: _722  and  _723
REMARK  293  A    between atoms: _722  and  _725
REMARK  294  A    between atoms: _725  and  _726
REMARK  295  A    between atoms: _726  and  _727
REMARK  296  A    between atoms: _729  and  _731
REMARK  297  A    between atoms: _731  and  _732
REMARK  298  A    between atoms: _731  and  _734
REMARK  299  A    between atoms: _734  and  _735
REMARK  300  A    between atoms: _735  and  _736
REMARK                            x       y       z     vdW  Elec       q    Type
REMARK                         _______ _______ _______ _____ _____    ______ ____
ROOT
ATOM      1  O   HOH     1      41.541   0.139  13.103  0.00  0.00    +0.000 OA
ENDROOT
TORSDOF 0
REMARK  Name = ../refined-set-2016/4gid/4gid_pocket.pdb
REMARK  300 active torsions:
REMARK  status: ('A' for Active; 'I' for Inactive)
REMARK    1  A    between atoms: _1  and  _3
REMARK    2  A    between atoms: _3  and  _4
REMARK    3  A    between atoms: _6  and  _8
REMARK    4  A    between atoms: _8  and  _9
REMARK    5  A    between atoms: _8  and  _11
REMARK    6  A    between atoms: _11  and  _12
REMARK    7  A    between atoms: _12  and  _13
REMARK    8  A    between atoms: _13  and  _14
REMARK    9  A    between atoms: _14  and  _15
REMARK   10  A    between atoms: _19  and  _21
REMARK   11  A    between atoms: _21  and  _22
REMARK   12  A    between atoms: _21  and  _24
REMARK   13  A    between atoms: _24  and  _25
REMARK   14  A    between atoms: _27  and  _29
REMARK   15  A    between atoms: _29  and  _30
REMARK   16  A    between atoms: _32  and  _34
REMARK   17  A    between atoms: _34  and  _35
REMARK   18  A    between atoms: _34  and  _37
REMARK   19  A    between atoms: _37  and  _38
REMARK   20  A    between atoms: _38  and  _39
REMARK   21  A    between atoms: _44  and  _46
REMARK   22  A    between atoms: _46  and  _47
REMARK   23  A    between atoms: _49  and  _51
REMARK   24  A    between atoms: _51  and  _52
REMARK   25  A    between atoms: _51  and  _54
REMARK   26  A    between atoms: _54  and  _55
REMARK   27  A    between atoms: _60  and  _61
REMARK   28  A    between atoms: _63  and  _65
REMARK   29  A    between atoms: _65  and  _66
REMARK   30  A    between atoms: _65  and  _68
REMARK   31  A    between atoms: _68  and  _69
REMARK   32  A    between atoms: _74  and  _75
REMARK   33  A    between atoms: _77  and  _79
REMARK   34  A    between atoms: _79  and  _80
REMARK   35  A    between atoms: _79  and  _82
REMARK   36  A    between atoms: _82  and  _83
REMARK   37  A    between atoms: _86  and  _88
REMARK   38  A    between atoms: _88  and  _89
REMARK   39  A    between atoms: _88  and  _91
REMARK   40  A    between atoms: _94  and  _96
REMARK   41  A    between atoms: _96  and  _97
REMARK   42  A    between atoms: _96  and  _99
REMARK   43  A    between atoms: _99  and  _100
REMARK   44  A    between atoms: _103  and  _105
REMARK   45  A    between atoms: _105  and  _106
REMARK   46  A    between atoms: _105  and  _108
REMARK   47  A    between atoms: _108  and  _109
REMARK   48  A    between atoms: _112  and  _114
REMARK   49  A    between atoms: _114  and  _115
REMARK   50  A    between atoms: _117  and  _119
REMARK   51  A    between atoms: _119  and  _120
REMARK   52  A    between atoms: _119  and  _122
REMARK   53  A    between atoms: _122  and  _123
REMARK   54  A    between atoms: _125  and  _127
REMARK   55  A    between atoms: _127  and  _128
REMARK   56  A    between atoms: _127  and  _130
REMARK   57  A    between atoms: _130  and  _131
REMARK   58  A    between atoms: _133  and  _135
REMARK   59  A    between atoms: _135  and  _136
REMARK   60  A    between atoms: _135  and  _138
REMARK   61  A    between atoms: _138  and  _139
REMARK   62  A    between atoms: _144  and  _146
REMARK   63  A    between atoms: _146  and  _147
REMARK   64  A    between atoms: _146  and  _149
REMARK   65  A    between atoms: _149  and  _150
REMARK   66  A    between atoms: _155  and  _156
REMARK   67  A    between atoms: _158  and  _160
REMARK   68  A    between atoms: _160  and  _161
REMARK   69  A    between atoms: _160  and  _163
REMARK   70  A    between atoms: _167  and  _168
REMARK   71  A    between atoms: _173  and  _175
REMARK   72  A    between atoms: _175  and  _176
REMARK   73  A    between atoms: _175  and  _178
REMARK   74  A    between atoms: _178  and  _179
REMARK   75  A    between atoms: _184  and  _185
REMARK   76  A    between atoms: _187  and  _189
REMARK   77  A    between atoms: _189  and  _190
REMARK   78  A    between atoms: _189  and  _192
REMARK   79  A    between atoms: _192  and  _193
REMARK   80  A    between atoms: _196  and  _198
REMARK   81  A    between atoms: _198  and  _199
REMARK   82  A    between atoms: _198  and  _201
REMARK   83  A    between atoms: _201  and  _202
REMARK   84  A    between atoms: _202  and  _203
REMARK   85  A    between atoms: _208  and  _210
REMARK   86  A    between atoms: _210  and  _211
REMARK   87  A    between atoms: _213  and  _215
REMARK   88  A    between atoms: _215  and  _216
REMARK   89  A    between atoms: _215  and  _218
REMARK   90  A    between atoms: _218  and  _219
REMARK   91  A    between atoms: _219  and  _220
REMARK   92  A    between atoms: _220  and  _221
REMARK   93  A    between atoms: _221  and  _222
REMARK   94  A    between atoms: _226  and  _228
REMARK   95  A    between atoms: _228  and  _229
REMARK   96  A    between atoms: _228  and  _231
REMARK   97  A    between atoms: _231  and  _232
REMARK   98  A    between atoms: _242  and  _244
REMARK   99  A    between atoms: _244  and  _245
REMARK  100  A    between atoms: _244  and  _247
REMARK  101  A    between atoms: _247  and  _248
REMARK  102  A    between atoms: _251  and  _253
REMARK  103  A    between atoms: _253  and  _254
REMARK  104  A    between atoms: _253  and  _256
REMARK  105  A    between atoms: _256  and  _257
REMARK  106  A    between atoms: _257  and  _258
REMARK  107  A    between atoms: _258  and  _259
REMARK  108  A    between atoms: _259  and  _260
REMARK  109  A    between atoms: _264  and  _266
REMARK  110  A    between atoms: _266  and  _267
REMARK  111  A    between atoms: _266  and  _269
REMARK  112  A    between atoms: _269  and  _270
REMARK  113  A    between atoms: _276  and  _278
REMARK  114  A    between atoms: _278  and  _279
REMARK  115  A    between atoms: _278  and  _281
REMARK  116  A    between atoms: _281  and  _282
REMARK  117  A    between atoms: _288  and  _290
REMARK  118  A    between atoms: _290  and  _291
REMARK  119  A    between atoms: _290  and  _293
REMARK  120  A    between atoms: _293  and  _294
REMARK  121  A    between atoms: _297  and  _299
REMARK  122  A    between atoms: _299  and  _300
REMARK  123  A    between atoms: _299  and  _302
REMARK  124  A    between atoms: _302  and  _303
REMARK  125  A    between atoms: _305  and  _307
REMARK  126  A    between atoms: _307  and  _308
REMARK  127  A    between atoms: _307  and  _310
REMARK  128  A    between atoms: _310  and  _311
REMARK  129  A    between atoms: _321  and  _323
REMARK  130  A    between atoms: _323  and  _324
REMARK  131  A    between atoms: _326  and  _328
REMARK  132  A    between atoms: _328  and  _329
REMARK  133  A    between atoms: _328  and  _331
REMARK  134  A    between atoms: _331  and  _332
REMARK  135  A    between atoms: _335  and  _337
REMARK  136  A    between atoms: _337  and  _338
REMARK  137  A    between atoms: _337  and  _340
REMARK  138  A    between atoms: _340  and  _341
REMARK  139  A    between atoms: _344  and  _346
REMARK  140  A    between atoms: _346  and  _347
REMARK  141  A    between atoms: _349  and  _351
REMARK  142  A    between atoms: _351  and  _352
REMARK  143  A    between atoms: _355  and  _357
REMARK  144  A    between atoms: _357  and  _358
REMARK  145  A    between atoms: _357  and  _360
REMARK  146  A    between atoms: _360  and  _361
REMARK  147  A    between atoms: _366  and  _367
REMARK  148  A    between atoms: _369  and  _371
REMARK  149  A    between atoms: _371  and  _372
REMARK  150  A    between atoms: _371  and  _374
REMARK  151  A    between atoms: _374  and  _375
REMARK  152  A    between atoms: _375  and  _376
REMARK  153  A    between atoms: _379  and  _381
REMARK  154  A    between atoms: _381  and  _382
REMARK  155  A    between atoms: _381  and  _384
REMARK  156  A    between atoms: _384  and  _385
REMARK  157  A    between atoms: _388  and  _390
REMARK  158  A    between atoms: _390  and  _391
REMARK  159  A    between atoms: _394  and  _396
REMARK  160  A    between atoms: _396  and  _397
REMARK  161  A    between atoms: _396  and  _399
REMARK  162  A    between atoms: _399  and  _400
REMARK  163  A    between atoms: _400  and  _401
REMARK  164  A    between atoms: _401  and  _402
REMARK  165  A    between atoms: _411  and  _413
REMARK  166  A    between atoms: _413  and  _414
REMARK  167  A    between atoms: _413  and  _416
REMARK  168  A    between atoms: _416  and  _417
REMARK  169  A    between atoms: _420  and  _422
REMARK  170  A    between atoms: _422  and  _423
REMARK  171  A    between atoms: _422  and  _425
REMARK  172  A    between atoms: _425  and  _426
REMARK  173  A    between atoms: _436  and  _438
REMARK  174  A    between atoms: _438  and  _439
REMARK  175  A    between atoms: _438  and  _441
REMARK  176  A    between atoms: _441  and  _442
REMARK  177  A    between atoms: _447  and  _448
REMARK  178  A    between atoms: _450  and  _452
REMARK  179  A    between atoms: _452  and  _453
REMARK  180  A    between atoms: _452  and  _455
REMARK  181  A    between atoms: _455  and  _456
REMARK  182  A    between atoms: _461  and  _462
REMARK  183  A    between atoms: _464  and  _466
REMARK  184  A    between atoms: _466  and  _467
REMARK  185  A    between atoms: _466  and  _469
REMARK  186  A    between atoms: _469  and  _470
REMARK  187  A    between atoms: _470  and  _471
REMARK  188  A    between atoms: _471  and  _472
REMARK  189  A    between atoms: _472  and  _473
REMARK  190  A    between atoms: _477  and  _479
REMARK  191  A    between atoms: _479  and  _480
REMARK  192  A    between atoms: _479  and  _482
REMARK  193  A    between atoms: _482  and  _483
REMARK  194  A    between atoms: _486  and  _488
REMARK  195  A    between atoms: _488  and  _489
REMARK  196  A    between atoms: _488  and  _491
REMARK  197  A    between atoms: _494  and  _496
REMARK  198  A    between atoms: _496  and  _497
REMARK  199  A    between atoms: _496  and  _499
REMARK  200  A    between atoms: _499  and  _500
REMARK  201  A    between atoms: _503  and  _505
REMARK  202  A    between atoms: _505  and  _506
REMARK  203  A    between atoms: _505  and  _508
REMARK  204  A    between atoms: _508  and  _509
REMARK  205  A    between atoms: _511  and  _513
REMARK  206  A    between atoms: _513  and  _514
REMARK  207  A    between atoms: _516  and  _518
REMARK  208  A    between atoms: _518  and  _519
REMARK  209  A    between atoms: _518  and  _521
REMARK  210  A    between atoms: _521  and  _522
REMARK  211  A    between atoms: _525  and  _527
REMARK  212  A    between atoms: _527  and  _528
REMARK  213  A    between atoms: _527  and  _530
REMARK  214  A    between atoms: _530  and  _531
REMARK  215  A    between atoms: _534  and  _536
REMARK  216  A    between atoms: _536  and  _537
REMARK  217  A    between atoms: _536  and  _539
REMARK  218  A    between atoms: _539  and  _540
REMARK  219  A    between atoms: _545  and  _547
REMARK  220  A    between atoms: _547  and  _548
REMARK  221  A    between atoms: _547  and  _550
REMARK  222  A    between atoms: _550  and  _551
REMARK  223  A    between atoms: _554  and  _556
REMARK  224  A    between atoms: _556  and  _557
REMARK  225  A    between atoms: _556  and  _559
REMARK  226  A    between atoms: _559  and  _560
REMARK  227  A    between atoms: _560  and  _561
REMARK  228  A    between atoms: _561  and  _562
REMARK  229  A    between atoms: _571  and  _573
REMARK  230  A    between atoms: _573  and  _574
REMARK  231  A    between atoms: _573  and  _576
REMARK  232  A    between atoms: _576  and  _577
REMARK  233  A    between atoms: _580  and  _582
REMARK  234  A    between atoms: _582  and  _583
REMARK  235  A    between atoms: _585  and  _587
REMARK  236  A    between atoms: _587  and  _588
REMARK  237  A    between atoms: _587  and  _590
REMARK  238  A    between atoms: _590  and  _591
REMARK  239  A    between atoms: _591  and  _592
REMARK  240  A    between atoms: _592  and  _593
REMARK  241  A    between atoms: _602  and  _604
REMARK  242  A    between atoms: _604  and  _605
REMARK  243  A    between atoms: _604  and  _607
REMARK  244  A    between atoms: _607  and  _608
REMARK  245  A    between atoms: _608  and  _609
REMARK  246  A    between atoms: _609  and  _610
REMARK  247  A    between atoms: _610  and  _611
REMARK  248  A    between atoms: _615  and  _617
REMARK  249  A    between atoms: _617  and  _618
REMARK  250  A    between atoms: _617  and  _620
REMARK  251  A    between atoms: _620  and  _621
REMARK  252  A    between atoms: _627  and  _629
REMARK  253  A    between atoms: _629  and  _630
REMARK  254  A    between atoms: _633  and  _635
REMARK  255  A    between atoms: _635  and  _636
REMARK  256  A    between atoms: _635  and  _638
REMARK  257  A    between atoms: _638  and  _639
REMARK  258  A    between atoms: _642  and  _644
REMARK  259  A    between atoms: _644  and  _645
REMARK  260  A    between atoms: _644  and  _647
REMARK  261  A    between atoms: _647  and  _648
REMARK  262  A    between atoms: _650  and  _652
REMARK  263  A    between atoms: _652  and  _653
REMARK  264  A    between atoms: _652  and  _655
REMARK  265  A    between atoms: _655  and  _656
REMARK  266  A    between atoms: _656  and  _657
REMARK  267  A    between atoms: _662  and  _664
REMARK  268  A    between atoms: _664  and  _665
REMARK  269  A    between atoms: _664  and  _667
REMARK  270  A    between atoms: _667  and  _668
REMARK  271  A    between atoms: _670  and  _672
REMARK  272  A    between atoms: _672  and  _673
REMARK  273  A    between atoms: _672  and  _675
REMARK  274  A    between atoms: _675  and  _676
REMARK  275  A    between atoms: _679  and  _681
REMARK  276  A    between atoms: _681  and  _682
REMARK  277  A    between atoms: _684  and  _686
REMARK  278  A    between atoms: _686  and  _687
REMARK  279  A    between atoms: _686  and  _689
REMARK  280  A    between atoms: _689  and  _690
REMARK  281  A    between atoms: _693  and  _695
REMARK  282  A    between atoms: _695  and  _696
REMARK  283  A    between atoms: _695  and  _698
REMARK  284  A    between atoms: _701  and  _703
REMARK  285  A    between atoms: _703  and  _704
REMARK  286  A    between atoms: _706  and  _708
REMARK  287  A    between atoms: _708  and  _709
REMARK  288  A    between atoms: _712  and  _714
REMARK  289  A    between atoms: _714  and  _715
REMARK  290  A    between atoms: _714  and  _717
REMARK  291  A    between atoms: _720  and  _722
REMARK  292  A    between atoms: _722  and  _723
REMARK  293  A    between atoms: _722  and  _725
REMARK  294  A    between atoms: _725  and  _726
REMARK  295  A    between atoms: _726  and  _727
REMARK  296  A    between atoms: _729  and  _731
REMARK  297  A    between atoms: _731  and  _732
REMARK  298  A    between atoms: _731  and  _734
REMARK  299  A    between atoms: _734  and  _735
REMARK  300  A    between atoms: _735  and  _736
REMARK                            x       y       z     vdW  Elec       q    Type
REMARK                         _______ _______ _______ _____ _____    ______ ____
ROOT
ATOM      1  O   HOH     1      35.152   4.077  22.001  0.00  0.00    +0.000 OA
ENDROOT
TORSDOF 0
REMARK  Name = ../refined-set-2016/4gid/4gid_pocket.pdb
REMARK  300 active torsions:
REMARK  status: ('A' for Active; 'I' for Inactive)
REMARK    1  A    between atoms: _1  and  _3
REMARK    2  A    between atoms: _3  and  _4
REMARK    3  A    between atoms: _6  and  _8
REMARK    4  A    between atoms: _8  and  _9
REMARK    5  A    between atoms: _8  and  _11
REMARK    6  A    between atoms: _11  and  _12
REMARK    7  A    between atoms: _12  and  _13
REMARK    8  A    between atoms: _13  and  _14
REMARK    9  A    between atoms: _14  and  _15
REMARK   10  A    between atoms: _19  and  _21
REMARK   11  A    between atoms: _21  and  _22
REMARK   12  A    between atoms: _21  and  _24
REMARK   13  A    between atoms: _24  and  _25
REMARK   14  A    between atoms: _27  and  _29
REMARK   15  A    between atoms: _29  and  _30
REMARK   16  A    between atoms: _32  and  _34
REMARK   17  A    between atoms: _34  and  _35
REMARK   18  A    between atoms: _34  and  _37
REMARK   19  A    between atoms: _37  and  _38
REMARK   20  A    between atoms: _38  and  _39
REMARK   21  A    between atoms: _44  and  _46
REMARK   22  A    between atoms: _46  and  _47
REMARK   23  A    between atoms: _49  and  _51
REMARK   24  A    between atoms: _51  and  _52
REMARK   25  A    between atoms: _51  and  _54
REMARK   26  A    between atoms: _54  and  _55
REMARK   27  A    between atoms: _60  and  _61
REMARK   28  A    between atoms: _63  and  _65
REMARK   29  A    between atoms: _65  and  _66
REMARK   30  A    between atoms: _65  and  _68
REMARK   31  A    between atoms: _68  and  _69
REMARK   32  A    between atoms: _74  and  _75
REMARK   33  A    between atoms: _77  and  _79
REMARK   34  A    between atoms: _79  and  _80
REMARK   35  A    between atoms: _79  and  _82
REMARK   36  A    between atoms: _82  and  _83
REMARK   37  A    between atoms: _86  and  _88
REMARK   38  A    between atoms: _88  and  _89
REMARK   39  A    between atoms: _88  and  _91
REMARK   40  A    between atoms: _94  and  _96
REMARK   41  A    between atoms: _96  and  _97
REMARK   42  A    between atoms: _96  and  _99
REMARK   43  A    between atoms: _99  and  _100
REMARK   44  A    between atoms: _103  and  _105
REMARK   45  A    between atoms: _105  and  _106
REMARK   46  A    between atoms: _105  and  _108
REMARK   47  A    between atoms: _108  and  _109
REMARK   48  A    between atoms: _112  and  _114
REMARK   49  A    between atoms: _114  and  _115
REMARK   50  A    between atoms: _117  and  _119
REMARK   51  A    between atoms: _119  and  _120
REMARK   52  A    between atoms: _119  and  _122
REMARK   53  A    between atoms: _122  and  _123
REMARK   54  A    between atoms: _125  and  _127
REMARK   55  A    between atoms: _127  and  _128
REMARK   56  A    between atoms: _127  and  _130
REMARK   57  A    between atoms: _130  and  _131
REMARK   58  A    between atoms: _133  and  _135
REMARK   59  A    between atoms: _135  and  _136
REMARK   60  A    between atoms: _135  and  _138
REMARK   61  A    between atoms: _138  and  _139
REMARK   62  A    between atoms: _144  and  _146
REMARK   63  A    between atoms: _146  and  _147
REMARK   64  A    between atoms: _146  and  _149
REMARK   65  A    between atoms: _149  and  _150
REMARK   66  A    between atoms: _155  and  _156
REMARK   67  A    between atoms: _158  and  _160
REMARK   68  A    between atoms: _160  and  _161
REMARK   69  A    between atoms: _160  and  _163
REMARK   70  A    between atoms: _167  and  _168
REMARK   71  A    between atoms: _173  and  _175
REMARK   72  A    between atoms: _175  and  _176
REMARK   73  A    between atoms: _175  and  _178
REMARK   74  A    between atoms: _178  and  _179
REMARK   75  A    between atoms: _184  and  _185
REMARK   76  A    between atoms: _187  and  _189
REMARK   77  A    between atoms: _189  and  _190
REMARK   78  A    between atoms: _189  and  _192
REMARK   79  A    between atoms: _192  and  _193
REMARK   80  A    between atoms: _196  and  _198
REMARK   81  A    between atoms: _198  and  _199
REMARK   82  A    between atoms: _198  and  _201
REMARK   83  A    between atoms: _201  and  _202
REMARK   84  A    between atoms: _202  and  _203
REMARK   85  A    between atoms: _208  and  _210
REMARK   86  A    between atoms: _210  and  _211
REMARK   87  A    between atoms: _213  and  _215
REMARK   88  A    between atoms: _215  and  _216
REMARK   89  A    between atoms: _215  and  _218
REMARK   90  A    between atoms: _218  and  _219
REMARK   91  A    between atoms: _219  and  _220
REMARK   92  A    between atoms: _220  and  _221
REMARK   93  A    between atoms: _221  and  _222
REMARK   94  A    between atoms: _226  and  _228
REMARK   95  A    between atoms: _228  and  _229
REMARK   96  A    between atoms: _228  and  _231
REMARK   97  A    between atoms: _231  and  _232
REMARK   98  A    between atoms: _242  and  _244
REMARK   99  A    between atoms: _244  and  _245
REMARK  100  A    between atoms: _244  and  _247
REMARK  101  A    between atoms: _247  and  _248
REMARK  102  A    between atoms: _251  and  _253
REMARK  103  A    between atoms: _253  and  _254
REMARK  104  A    between atoms: _253  and  _256
REMARK  105  A    between atoms: _256  and  _257
REMARK  106  A    between atoms: _257  and  _258
REMARK  107  A    between atoms: _258  and  _259
REMARK  108  A    between atoms: _259  and  _260
REMARK  109  A    between atoms: _264  and  _266
REMARK  110  A    between atoms: _266  and  _267
REMARK  111  A    between atoms: _266  and  _269
REMARK  112  A    between atoms: _269  and  _270
REMARK  113  A    between atoms: _276  and  _278
REMARK  114  A    between atoms: _278  and  _279
REMARK  115  A    between atoms: _278  and  _281
REMARK  116  A    between atoms: _281  and  _282
REMARK  117  A    between atoms: _288  and  _290
REMARK  118  A    between atoms: _290  and  _291
REMARK  119  A    between atoms: _290  and  _293
REMARK  120  A    between atoms: _293  and  _294
REMARK  121  A    between atoms: _297  and  _299
REMARK  122  A    between atoms: _299  and  _300
REMARK  123  A    between atoms: _299  and  _302
REMARK  124  A    between atoms: _302  and  _303
REMARK  125  A    between atoms: _305  and  _307
REMARK  126  A    between atoms: _307  and  _308
REMARK  127  A    between atoms: _307  and  _310
REMARK  128  A    between atoms: _310  and  _311
REMARK  129  A    between atoms: _321  and  _323
REMARK  130  A    between atoms: _323  and  _324
REMARK  131  A    between atoms: _326  and  _328
REMARK  132  A    between atoms: _328  and  _329
REMARK  133  A    between atoms: _328  and  _331
REMARK  134  A    between atoms: _331  and  _332
REMARK  135  A    between atoms: _335  and  _337
REMARK  136  A    between atoms: _337  and  _338
REMARK  137  A    between atoms: _337  and  _340
REMARK  138  A    between atoms: _340  and  _341
REMARK  139  A    between atoms: _344  and  _346
REMARK  140  A    between atoms: _346  and  _347
REMARK  141  A    between atoms: _349  and  _351
REMARK  142  A    between atoms: _351  and  _352
REMARK  143  A    between atoms: _355  and  _357
REMARK  144  A    between atoms: _357  and  _358
REMARK  145  A    between atoms: _357  and  _360
REMARK  146  A    between atoms: _360  and  _361
REMARK  147  A    between atoms: _366  and  _367
REMARK  148  A    between atoms: _369  and  _371
REMARK  149  A    between atoms: _371  and  _372
REMARK  150  A    between atoms: _371  and  _374
REMARK  151  A    between atoms: _374  and  _375
REMARK  152  A    between atoms: _375  and  _376
REMARK  153  A    between atoms: _379  and  _381
REMARK  154  A    between atoms: _381  and  _382
REMARK  155  A    between atoms: _381  and  _384
REMARK  156  A    between atoms: _384  and  _385
REMARK  157  A    between atoms: _388  and  _390
REMARK  158  A    between atoms: _390  and  _391
REMARK  159  A    between atoms: _394  and  _396
REMARK  160  A    between atoms: _396  and  _397
REMARK  161  A    between atoms: _396  and  _399
REMARK  162  A    between atoms: _399  and  _400
REMARK  163  A    between atoms: _400  and  _401
REMARK  164  A    between atoms: _401  and  _402
REMARK  165  A    between atoms: _411  and  _413
REMARK  166  A    between atoms: _413  and  _414
REMARK  167  A    between atoms: _413  and  _416
REMARK  168  A    between atoms: _416  and  _417
REMARK  169  A    between atoms: _420  and  _422
REMARK  170  A    between atoms: _422  and  _423
REMARK  171  A    between atoms: _422  and  _425
REMARK  172  A    between atoms: _425  and  _426
REMARK  173  A    between atoms: _436  and  _438
REMARK  174  A    between atoms: _438  and  _439
REMARK  175  A    between atoms: _438  and  _441
REMARK  176  A    between atoms: _441  and  _442
REMARK  177  A    between atoms: _447  and  _448
REMARK  178  A    between atoms: _450  and  _452
REMARK  179  A    between atoms: _452  and  _453
REMARK  180  A    between atoms: _452  and  _455
REMARK  181  A    between atoms: _455  and  _456
REMARK  182  A    between atoms: _461  and  _462
REMARK  183  A    between atoms: _464  and  _466
REMARK  184  A    between atoms: _466  and  _467
REMARK  185  A    between atoms: _466  and  _469
REMARK  186  A    between atoms: _469  and  _470
REMARK  187  A    between atoms: _470  and  _471
REMARK  188  A    between atoms: _471  and  _472
REMARK  189  A    between atoms: _472  and  _473
REMARK  190  A    between atoms: _477  and  _479
REMARK  191  A    between atoms: _479  and  _480
REMARK  192  A    between atoms: _479  and  _482
REMARK  193  A    between atoms: _482  and  _483
REMARK  194  A    between atoms: _486  and  _488
REMARK  195  A    between atoms: _488  and  _489
REMARK  196  A    between atoms: _488  and  _491
REMARK  197  A    between atoms: _494  and  _496
REMARK  198  A    between atoms: _496  and  _497
REMARK  199  A    between atoms: _496  and  _499
REMARK  200  A    between atoms: _499  and  _500
REMARK  201  A    between atoms: _503  and  _505
REMARK  202  A    between atoms: _505  and  _506
REMARK  203  A    between atoms: _505  and  _508
REMARK  204  A    between atoms: _508  and  _509
REMARK  205  A    between atoms: _511  and  _513
REMARK  206  A    between atoms: _513  and  _514
REMARK  207  A    between atoms: _516  and  _518
REMARK  208  A    between atoms: _518  and  _519
REMARK  209  A    between atoms: _518  and  _521
REMARK  210  A    between atoms: _521  and  _522
REMARK  211  A    between atoms: _525  and  _527
REMARK  212  A    between atoms: _527  and  _528
REMARK  213  A    between atoms: _527  and  _530
REMARK  214  A    between atoms: _530  and  _531
REMARK  215  A    between atoms: _534  and  _536
REMARK  216  A    between atoms: _536  and  _537
REMARK  217  A    between atoms: _536  and  _539
REMARK  218  A    between atoms: _539  and  _540
REMARK  219  A    between atoms: _545  and  _547
REMARK  220  A    between atoms: _547  and  _548
REMARK  221  A    between atoms: _547  and  _550
REMARK  222  A    between atoms: _550  and  _551
REMARK  223  A    between atoms: _554  and  _556
REMARK  224  A    between atoms: _556  and  _557
REMARK  225  A    between atoms: _556  and  _559
REMARK  226  A    between atoms: _559  and  _560
REMARK  227  A    between atoms: _560  and  _561
REMARK  228  A    between atoms: _561  and  _562
REMARK  229  A    between atoms: _571  and  _573
REMARK  230  A    between atoms: _573  and  _574
REMARK  231  A    between atoms: _573  and  _576
REMARK  232  A    between atoms: _576  and  _577
REMARK  233  A    between atoms: _580  and  _582
REMARK  234  A    between atoms: _582  and  _583
REMARK  235  A    between atoms: _585  and  _587
REMARK  236  A    between atoms: _587  and  _588
REMARK  237  A    between atoms: _587  and  _590
REMARK  238  A    between atoms: _590  and  _591
REMARK  239  A    between atoms: _591  and  _592
REMARK  240  A    between atoms: _592  and  _593
REMARK  241  A    between atoms: _602  and  _604
REMARK  242  A    between atoms: _604  and  _605
REMARK  243  A    between atoms: _604  and  _607
REMARK  244  A    between atoms: _607  and  _608
REMARK  245  A    between atoms: _608  and  _609
REMARK  246  A    between atoms: _609  and  _610
REMARK  247  A    between atoms: _610  and  _611
REMARK  248  A    between atoms: _615  and  _617
REMARK  249  A    between atoms: _617  and  _618
REMARK  250  A    between atoms: _617  and  _620
REMARK  251  A    between atoms: _620  and  _621
REMARK  252  A    between atoms: _627  and  _629
REMARK  253  A    between atoms: _629  and  _630
REMARK  254  A    between atoms: _633  and  _635
REMARK  255  A    between atoms: _635  and  _636
REMARK  256  A    between atoms: _635  and  _638
REMARK  257  A    between atoms: _638  and  _639
REMARK  258  A    between atoms: _642  and  _644
REMARK  259  A    between atoms: _644  and  _645
REMARK  260  A    between atoms: _644  and  _647
REMARK  261  A    between atoms: _647  and  _648
REMARK  262  A    between atoms: _650  and  _652
REMARK  263  A    between atoms: _652  and  _653
REMARK  264  A    between atoms: _652  and  _655
REMARK  265  A    between atoms: _655  and  _656
REMARK  266  A    between atoms: _656  and  _657
REMARK  267  A    between atoms: _662  and  _664
REMARK  268  A    between atoms: _664  and  _665
REMARK  269  A    between atoms: _664  and  _667
REMARK  270  A    between atoms: _667  and  _668
REMARK  271  A    between atoms: _670  and  _672
REMARK  272  A    between atoms: _672  and  _673
REMARK  273  A    between atoms: _672  and  _675
REMARK  274  A    between atoms: _675  and  _676
REMARK  275  A    between atoms: _679  and  _681
REMARK  276  A    between atoms: _681  and  _682
REMARK  277  A    between atoms: _684  and  _686
REMARK  278  A    between atoms: _686  and  _687
REMARK  279  A    between atoms: _686  and  _689
REMARK  280  A    between atoms: _689  and  _690
REMARK  281  A    between atoms: _693  and  _695
REMARK  282  A    between atoms: _695  and  _696
REMARK  283  A    between atoms: _695  and  _698
REMARK  284  A    between atoms: _701  and  _703
REMARK  285  A    between atoms: _703  and  _704
REMARK  286  A    between atoms: _706  and  _708
REMARK  287  A    between atoms: _708  and  _709
REMARK  288  A    between atoms: _712  and  _714
REMARK  289  A    between atoms: _714  and  _715
REMARK  290  A    between atoms: _714  and  _717
REMARK  291  A    between atoms: _720  and  _722
REMARK  292  A    between atoms: _722  and  _723
REMARK  293  A    between atoms: _722  and  _725
REMARK  294  A    between atoms: _725  and  _726
REMARK  295  A    between atoms: _726  and  _727
REMARK  296  A    between atoms: _729  and  _731
REMARK  297  A    between atoms: _731  and  _732
REMARK  298  A    between atoms: _731  and  _734
REMARK  299  A    between atoms: _734  and  _735
REMARK  300  A    between atoms: _735  and  _736
REMARK                            x       y       z     vdW  Elec       q    Type
REMARK                         _______ _______ _______ _____ _____    ______ ____
ROOT
ATOM      1  O   HOH     1      37.142 -10.760  15.870  0.00  0.00    +0.000 OA
ENDROOT
TORSDOF 0
REMARK  Name = ../refined-set-2016/4gid/4gid_pocket.pdb
REMARK  300 active torsions:
REMARK  status: ('A' for Active; 'I' for Inactive)
REMARK    1  A    between atoms: _1  and  _3
REMARK    2  A    between atoms: _3  and  _4
REMARK    3  A    between atoms: _6  and  _8
REMARK    4  A    between atoms: _8  and  _9
REMARK    5  A    between atoms: _8  and  _11
REMARK    6  A    between atoms: _11  and  _12
REMARK    7  A    between atoms: _12  and  _13
REMARK    8  A    between atoms: _13  and  _14
REMARK    9  A    between atoms: _14  and  _15
REMARK   10  A    between atoms: _19  and  _21
REMARK   11  A    between atoms: _21  and  _22
REMARK   12  A    between atoms: _21  and  _24
REMARK   13  A    between atoms: _24  and  _25
REMARK   14  A    between atoms: _27  and  _29
REMARK   15  A    between atoms: _29  and  _30
REMARK   16  A    between atoms: _32  and  _34
REMARK   17  A    between atoms: _34  and  _35
REMARK   18  A    between atoms: _34  and  _37
REMARK   19  A    between atoms: _37  and  _38
REMARK   20  A    between atoms: _38  and  _39
REMARK   21  A    between atoms: _44  and  _46
REMARK   22  A    between atoms: _46  and  _47
REMARK   23  A    between atoms: _49  and  _51
REMARK   24  A    between atoms: _51  and  _52
REMARK   25  A    between atoms: _51  and  _54
REMARK   26  A    between atoms: _54  and  _55
REMARK   27  A    between atoms: _60  and  _61
REMARK   28  A    between atoms: _63  and  _65
REMARK   29  A    between atoms: _65  and  _66
REMARK   30  A    between atoms: _65  and  _68
REMARK   31  A    between atoms: _68  and  _69
REMARK   32  A    between atoms: _74  and  _75
REMARK   33  A    between atoms: _77  and  _79
REMARK   34  A    between atoms: _79  and  _80
REMARK   35  A    between atoms: _79  and  _82
REMARK   36  A    between atoms: _82  and  _83
REMARK   37  A    between atoms: _86  and  _88
REMARK   38  A    between atoms: _88  and  _89
REMARK   39  A    between atoms: _88  and  _91
REMARK   40  A    between atoms: _94  and  _96
REMARK   41  A    between atoms: _96  and  _97
REMARK   42  A    between atoms: _96  and  _99
REMARK   43  A    between atoms: _99  and  _100
REMARK   44  A    between atoms: _103  and  _105
REMARK   45  A    between atoms: _105  and  _106
REMARK   46  A    between atoms: _105  and  _108
REMARK   47  A    between atoms: _108  and  _109
REMARK   48  A    between atoms: _112  and  _114
REMARK   49  A    between atoms: _114  and  _115
REMARK   50  A    between atoms: _117  and  _119
REMARK   51  A    between atoms: _119  and  _120
REMARK   52  A    between atoms: _119  and  _122
REMARK   53  A    between atoms: _122  and  _123
REMARK   54  A    between atoms: _125  and  _127
REMARK   55  A    between atoms: _127  and  _128
REMARK   56  A    between atoms: _127  and  _130
REMARK   57  A    between atoms: _130  and  _131
REMARK   58  A    between atoms: _133  and  _135
REMARK   59  A    between atoms: _135  and  _136
REMARK   60  A    between atoms: _135  and  _138
REMARK   61  A    between atoms: _138  and  _139
REMARK   62  A    between atoms: _144  and  _146
REMARK   63  A    between atoms: _146  and  _147
REMARK   64  A    between atoms: _146  and  _149
REMARK   65  A    between atoms: _149  and  _150
REMARK   66  A    between atoms: _155  and  _156
REMARK   67  A    between atoms: _158  and  _160
REMARK   68  A    between atoms: _160  and  _161
REMARK   69  A    between atoms: _160  and  _163
REMARK   70  A    between atoms: _167  and  _168
REMARK   71  A    between atoms: _173  and  _175
REMARK   72  A    between atoms: _175  and  _176
REMARK   73  A    between atoms: _175  and  _178
REMARK   74  A    between atoms: _178  and  _179
REMARK   75  A    between atoms: _184  and  _185
REMARK   76  A    between atoms: _187  and  _189
REMARK   77  A    between atoms: _189  and  _190
REMARK   78  A    between atoms: _189  and  _192
REMARK   79  A    between atoms: _192  and  _193
REMARK   80  A    between atoms: _196  and  _198
REMARK   81  A    between atoms: _198  and  _199
REMARK   82  A    between atoms: _198  and  _201
REMARK   83  A    between atoms: _201  and  _202
REMARK   84  A    between atoms: _202  and  _203
REMARK   85  A    between atoms: _208  and  _210
REMARK   86  A    between atoms: _210  and  _211
REMARK   87  A    between atoms: _213  and  _215
REMARK   88  A    between atoms: _215  and  _216
REMARK   89  A    between atoms: _215  and  _218
REMARK   90  A    between atoms: _218  and  _219
REMARK   91  A    between atoms: _219  and  _220
REMARK   92  A    between atoms: _220  and  _221
REMARK   93  A    between atoms: _221  and  _222
REMARK   94  A    between atoms: _226  and  _228
REMARK   95  A    between atoms: _228  and  _229
REMARK   96  A    between atoms: _228  and  _231
REMARK   97  A    between atoms: _231  and  _232
REMARK   98  A    between atoms: _242  and  _244
REMARK   99  A    between atoms: _244  and  _245
REMARK  100  A    between atoms: _244  and  _247
REMARK  101  A    between atoms: _247  and  _248
REMARK  102  A    between atoms: _251  and  _253
REMARK  103  A    between atoms: _253  and  _254
REMARK  104  A    between atoms: _253  and  _256
REMARK  105  A    between atoms: _256  and  _257
REMARK  106  A    between atoms: _257  and  _258
REMARK  107  A    between atoms: _258  and  _259
REMARK  108  A    between atoms: _259  and  _260
REMARK  109  A    between atoms: _264  and  _266
REMARK  110  A    between atoms: _266  and  _267
REMARK  111  A    between atoms: _266  and  _269
REMARK  112  A    between atoms: _269  and  _270
REMARK  113  A    between atoms: _276  and  _278
REMARK  114  A    between atoms: _278  and  _279
REMARK  115  A    between atoms: _278  and  _281
REMARK  116  A    between atoms: _281  and  _282
REMARK  117  A    between atoms: _288  and  _290
REMARK  118  A    between atoms: _290  and  _291
REMARK  119  A    between atoms: _290  and  _293
REMARK  120  A    between atoms: _293  and  _294
REMARK  121  A    between atoms: _297  and  _299
REMARK  122  A    between atoms: _299  and  _300
REMARK  123  A    between atoms: _299  and  _302
REMARK  124  A    between atoms: _302  and  _303
REMARK  125  A    between atoms: _305  and  _307
REMARK  126  A    between atoms: _307  and  _308
REMARK  127  A    between atoms: _307  and  _310
REMARK  128  A    between atoms: _310  and  _311
REMARK  129  A    between atoms: _321  and  _323
REMARK  130  A    between atoms: _323  and  _324
REMARK  131  A    between atoms: _326  and  _328
REMARK  132  A    between atoms: _328  and  _329
REMARK  133  A    between atoms: _328  and  _331
REMARK  134  A    between atoms: _331  and  _332
REMARK  135  A    between atoms: _335  and  _337
REMARK  136  A    between atoms: _337  and  _338
REMARK  137  A    between atoms: _337  and  _340
REMARK  138  A    between atoms: _340  and  _341
REMARK  139  A    between atoms: _344  and  _346
REMARK  140  A    between atoms: _346  and  _347
REMARK  141  A    between atoms: _349  and  _351
REMARK  142  A    between atoms: _351  and  _352
REMARK  143  A    between atoms: _355  and  _357
REMARK  144  A    between atoms: _357  and  _358
REMARK  145  A    between atoms: _357  and  _360
REMARK  146  A    between atoms: _360  and  _361
REMARK  147  A    between atoms: _366  and  _367
REMARK  148  A    between atoms: _369  and  _371
REMARK  149  A    between atoms: _371  and  _372
REMARK  150  A    between atoms: _371  and  _374
REMARK  151  A    between atoms: _374  and  _375
REMARK  152  A    between atoms: _375  and  _376
REMARK  153  A    between atoms: _379  and  _381
REMARK  154  A    between atoms: _381  and  _382
REMARK  155  A    between atoms: _381  and  _384
REMARK  156  A    between atoms: _384  and  _385
REMARK  157  A    between atoms: _388  and  _390
REMARK  158  A    between atoms: _390  and  _391
REMARK  159  A    between atoms: _394  and  _396
REMARK  160  A    between atoms: _396  and  _397
REMARK  161  A    between atoms: _396  and  _399
REMARK  162  A    between atoms: _399  and  _400
REMARK  163  A    between atoms: _400  and  _401
REMARK  164  A    between atoms: _401  and  _402
REMARK  165  A    between atoms: _411  and  _413
REMARK  166  A    between atoms: _413  and  _414
REMARK  167  A    between atoms: _413  and  _416
REMARK  168  A    between atoms: _416  and  _417
REMARK  169  A    between atoms: _420  and  _422
REMARK  170  A    between atoms: _422  and  _423
REMARK  171  A    between atoms: _422  and  _425
REMARK  172  A    between atoms: _425  and  _426
REMARK  173  A    between atoms: _436  and  _438
REMARK  174  A    between atoms: _438  and  _439
REMARK  175  A    between atoms: _438  and  _441
REMARK  176  A    between atoms: _441  and  _442
REMARK  177  A    between atoms: _447  and  _448
REMARK  178  A    between atoms: _450  and  _452
REMARK  179  A    between atoms: _452  and  _453
REMARK  180  A    between atoms: _452  and  _455
REMARK  181  A    between atoms: _455  and  _456
REMARK  182  A    between atoms: _461  and  _462
REMARK  183  A    between atoms: _464  and  _466
REMARK  184  A    between atoms: _466  and  _467
REMARK  185  A    between atoms: _466  and  _469
REMARK  186  A    between atoms: _469  and  _470
REMARK  187  A    between atoms: _470  and  _471
REMARK  188  A    between atoms: _471  and  _472
REMARK  189  A    between atoms: _472  and  _473
REMARK  190  A    between atoms: _477  and  _479
REMARK  191  A    between atoms: _479  and  _480
REMARK  192  A    between atoms: _479  and  _482
REMARK  193  A    between atoms: _482  and  _483
REMARK  194  A    between atoms: _486  and  _488
REMARK  195  A    between atoms: _488  and  _489
REMARK  196  A    between atoms: _488  and  _491
REMARK  197  A    between atoms: _494  and  _496
REMARK  198  A    between atoms: _496  and  _497
REMARK  199  A    between atoms: _496  and  _499
REMARK  200  A    between atoms: _499  and  _500
REMARK  201  A    between atoms: _503  and  _505
REMARK  202  A    between atoms: _505  and  _506
REMARK  203  A    between atoms: _505  and  _508
REMARK  204  A    between atoms: _508  and  _509
REMARK  205  A    between atoms: _511  and  _513
REMARK  206  A    between atoms: _513  and  _514
REMARK  207  A    between atoms: _516  and  _518
REMARK  208  A    between atoms: _518  and  _519
REMARK  209  A    between atoms: _518  and  _521
REMARK  210  A    between atoms: _521  and  _522
REMARK  211  A    between atoms: _525  and  _527
REMARK  212  A    between atoms: _527  and  _528
REMARK  213  A    between atoms: _527  and  _530
REMARK  214  A    between atoms: _530  and  _531
REMARK  215  A    between atoms: _534  and  _536
REMARK  216  A    between atoms: _536  and  _537
REMARK  217  A    between atoms: _536  and  _539
REMARK  218  A    between atoms: _539  and  _540
REMARK  219  A    between atoms: _545  and  _547
REMARK  220  A    between atoms: _547  and  _548
REMARK  221  A    between atoms: _547  and  _550
REMARK  222  A    between atoms: _550  and  _551
REMARK  223  A    between atoms: _554  and  _556
REMARK  224  A    between atoms: _556  and  _557
REMARK  225  A    between atoms: _556  and  _559
REMARK  226  A    between atoms: _559  and  _560
REMARK  227  A    between atoms: _560  and  _561
REMARK  228  A    between atoms: _561  and  _562
REMARK  229  A    between atoms: _571  and  _573
REMARK  230  A    between atoms: _573  and  _574
REMARK  231  A    between atoms: _573  and  _576
REMARK  232  A    between atoms: _576  and  _577
REMARK  233  A    between atoms: _580  and  _582
REMARK  234  A    between atoms: _582  and  _583
REMARK  235  A    between atoms: _585  and  _587
REMARK  236  A    between atoms: _587  and  _588
REMARK  237  A    between atoms: _587  and  _590
REMARK  238  A    between atoms: _590  and  _591
REMARK  239  A    between atoms: _591  and  _592
REMARK  240  A    between atoms: _592  and  _593
REMARK  241  A    between atoms: _602  and  _604
REMARK  242  A    between atoms: _604  and  _605
REMARK  243  A    between atoms: _604  and  _607
REMARK  244  A    between atoms: _607  and  _608
REMARK  245  A    between atoms: _608  and  _609
REMARK  246  A    between atoms: _609  and  _610
REMARK  247  A    between atoms: _610  and  _611
REMARK  248  A    between atoms: _615  and  _617
REMARK  249  A    between atoms: _617  and  _618
REMARK  250  A    between atoms: _617  and  _620
REMARK  251  A    between atoms: _620  and  _621
REMARK  252  A    between atoms: _627  and  _629
REMARK  253  A    between atoms: _629  and  _630
REMARK  254  A    between atoms: _633  and  _635
REMARK  255  A    between atoms: _635  and  _636
REMARK  256  A    between atoms: _635  and  _638
REMARK  257  A    between atoms: _638  and  _639
REMARK  258  A    between atoms: _642  and  _644
REMARK  259  A    between atoms: _644  and  _645
REMARK  260  A    between atoms: _644  and  _647
REMARK  261  A    between atoms: _647  and  _648
REMARK  262  A    between atoms: _650  and  _652
REMARK  263  A    between atoms: _652  and  _653
REMARK  264  A    between atoms: _652  and  _655
REMARK  265  A    between atoms: _655  and  _656
REMARK  266  A    between atoms: _656  and  _657
REMARK  267  A    between atoms: _662  and  _664
REMARK  268  A    between atoms: _664  and  _665
REMARK  269  A    between atoms: _664  and  _667
REMARK  270  A    between atoms: _667  and  _668
REMARK  271  A    between atoms: _670  and  _672
REMARK  272  A    between atoms: _672  and  _673
REMARK  273  A    between atoms: _672  and  _675
REMARK  274  A    between atoms: _675  and  _676
REMARK  275  A    between atoms: _679  and  _681
REMARK  276  A    between atoms: _681  and  _682
REMARK  277  A    between atoms: _684  and  _686
REMARK  278  A    between atoms: _686  and  _687
REMARK  279  A    between atoms: _686  and  _689
REMARK  280  A    between atoms: _689  and  _690
REMARK  281  A    between atoms: _693  and  _695
REMARK  282  A    between atoms: _695  and  _696
REMARK  283  A    between atoms: _695  and  _698
REMARK  284  A    between atoms: _701  and  _703
REMARK  285  A    between atoms: _703  and  _704
REMARK  286  A    between atoms: _706  and  _708
REMARK  287  A    between atoms: _708  and  _709
REMARK  288  A    between atoms: _712  and  _714
REMARK  289  A    between atoms: _714  and  _715
REMARK  290  A    between atoms: _714  and  _717
REMARK  291  A    between atoms: _720  and  _722
REMARK  292  A    between atoms: _722  and  _723
REMARK  293  A    between atoms: _722  and  _725
REMARK  294  A    between atoms: _725  and  _726
REMARK  295  A    between atoms: _726  and  _727
REMARK  296  A    between atoms: _729  and  _731
REMARK  297  A    between atoms: _731  and  _732
REMARK  298  A    between atoms: _731  and  _734
REMARK  299  A    between atoms: _734  and  _735
REMARK  300  A    between atoms: _735  and  _736
REMARK                            x       y       z     vdW  Elec       q    Type
REMARK                         _______ _______ _______ _____ _____    ______ ____
ROOT
ATOM      1  O   HOH     1      38.203  -0.404  19.665  0.00  0.00    +0.000 OA
ENDROOT
TORSDOF 0
REMARK  Name = ../refined-set-2016/4gid/4gid_pocket.pdb
REMARK  300 active torsions:
REMARK  status: ('A' for Active; 'I' for Inactive)
REMARK    1  A    between atoms: _1  and  _3
REMARK    2  A    between atoms: _3  and  _4
REMARK    3  A    between atoms: _6  and  _8
REMARK    4  A    between atoms: _8  and  _9
REMARK    5  A    between atoms: _8  and  _11
REMARK    6  A    between atoms: _11  and  _12
REMARK    7  A    between atoms: _12  and  _13
REMARK    8  A    between atoms: _13  and  _14
REMARK    9  A    between atoms: _14  and  _15
REMARK   10  A    between atoms: _19  and  _21
REMARK   11  A    between atoms: _21  and  _22
REMARK   12  A    between atoms: _21  and  _24
REMARK   13  A    between atoms: _24  and  _25
REMARK   14  A    between atoms: _27  and  _29
REMARK   15  A    between atoms: _29  and  _30
REMARK   16  A    between atoms: _32  and  _34
REMARK   17  A    between atoms: _34  and  _35
REMARK   18  A    between atoms: _34  and  _37
REMARK   19  A    between atoms: _37  and  _38
REMARK   20  A    between atoms: _38  and  _39
REMARK   21  A    between atoms: _44  and  _46
REMARK   22  A    between atoms: _46  and  _47
REMARK   23  A    between atoms: _49  and  _51
REMARK   24  A    between atoms: _51  and  _52
REMARK   25  A    between atoms: _51  and  _54
REMARK   26  A    between atoms: _54  and  _55
REMARK   27  A    between atoms: _60  and  _61
REMARK   28  A    between atoms: _63  and  _65
REMARK   29  A    between atoms: _65  and  _66
REMARK   30  A    between atoms: _65  and  _68
REMARK   31  A    between atoms: _68  and  _69
REMARK   32  A    between atoms: _74  and  _75
REMARK   33  A    between atoms: _77  and  _79
REMARK   34  A    between atoms: _79  and  _80
REMARK   35  A    between atoms: _79  and  _82
REMARK   36  A    between atoms: _82  and  _83
REMARK   37  A    between atoms: _86  and  _88
REMARK   38  A    between atoms: _88  and  _89
REMARK   39  A    between atoms: _88  and  _91
REMARK   40  A    between atoms: _94  and  _96
REMARK   41  A    between atoms: _96  and  _97
REMARK   42  A    between atoms: _96  and  _99
REMARK   43  A    between atoms: _99  and  _100
REMARK   44  A    between atoms: _103  and  _105
REMARK   45  A    between atoms: _105  and  _106
REMARK   46  A    between atoms: _105  and  _108
REMARK   47  A    between atoms: _108  and  _109
REMARK   48  A    between atoms: _112  and  _114
REMARK   49  A    between atoms: _114  and  _115
REMARK   50  A    between atoms: _117  and  _119
REMARK   51  A    between atoms: _119  and  _120
REMARK   52  A    between atoms: _119  and  _122
REMARK   53  A    between atoms: _122  and  _123
REMARK   54  A    between atoms: _125  and  _127
REMARK   55  A    between atoms: _127  and  _128
REMARK   56  A    between atoms: _127  and  _130
REMARK   57  A    between atoms: _130  and  _131
REMARK   58  A    between atoms: _133  and  _135
REMARK   59  A    between atoms: _135  and  _136
REMARK   60  A    between atoms: _135  and  _138
REMARK   61  A    between atoms: _138  and  _139
REMARK   62  A    between atoms: _144  and  _146
REMARK   63  A    between atoms: _146  and  _147
REMARK   64  A    between atoms: _146  and  _149
REMARK   65  A    between atoms: _149  and  _150
REMARK   66  A    between atoms: _155  and  _156
REMARK   67  A    between atoms: _158  and  _160
REMARK   68  A    between atoms: _160  and  _161
REMARK   69  A    between atoms: _160  and  _163
REMARK   70  A    between atoms: _167  and  _168
REMARK   71  A    between atoms: _173  and  _175
REMARK   72  A    between atoms: _175  and  _176
REMARK   73  A    between atoms: _175  and  _178
REMARK   74  A    between atoms: _178  and  _179
REMARK   75  A    between atoms: _184  and  _185
REMARK   76  A    between atoms: _187  and  _189
REMARK   77  A    between atoms: _189  and  _190
REMARK   78  A    between atoms: _189  and  _192
REMARK   79  A    between atoms: _192  and  _193
REMARK   80  A    between atoms: _196  and  _198
REMARK   81  A    between atoms: _198  and  _199
REMARK   82  A    between atoms: _198  and  _201
REMARK   83  A    between atoms: _201  and  _202
REMARK   84  A    between atoms: _202  and  _203
REMARK   85  A    between atoms: _208  and  _210
REMARK   86  A    between atoms: _210  and  _211
REMARK   87  A    between atoms: _213  and  _215
REMARK   88  A    between atoms: _215  and  _216
REMARK   89  A    between atoms: _215  and  _218
REMARK   90  A    between atoms: _218  and  _219
REMARK   91  A    between atoms: _219  and  _220
REMARK   92  A    between atoms: _220  and  _221
REMARK   93  A    between atoms: _221  and  _222
REMARK   94  A    between atoms: _226  and  _228
REMARK   95  A    between atoms: _228  and  _229
REMARK   96  A    between atoms: _228  and  _231
REMARK   97  A    between atoms: _231  and  _232
REMARK   98  A    between atoms: _242  and  _244
REMARK   99  A    between atoms: _244  and  _245
REMARK  100  A    between atoms: _244  and  _247
REMARK  101  A    between atoms: _247  and  _248
REMARK  102  A    between atoms: _251  and  _253
REMARK  103  A    between atoms: _253  and  _254
REMARK  104  A    between atoms: _253  and  _256
REMARK  105  A    between atoms: _256  and  _257
REMARK  106  A    between atoms: _257  and  _258
REMARK  107  A    between atoms: _258  and  _259
REMARK  108  A    between atoms: _259  and  _260
REMARK  109  A    between atoms: _264  and  _266
REMARK  110  A    between atoms: _266  and  _267
REMARK  111  A    between atoms: _266  and  _269
REMARK  112  A    between atoms: _269  and  _270
REMARK  113  A    between atoms: _276  and  _278
REMARK  114  A    between atoms: _278  and  _279
REMARK  115  A    between atoms: _278  and  _281
REMARK  116  A    between atoms: _281  and  _282
REMARK  117  A    between atoms: _288  and  _290
REMARK  118  A    between atoms: _290  and  _291
REMARK  119  A    between atoms: _290  and  _293
REMARK  120  A    between atoms: _293  and  _294
REMARK  121  A    between atoms: _297  and  _299
REMARK  122  A    between atoms: _299  and  _300
REMARK  123  A    between atoms: _299  and  _302
REMARK  124  A    between atoms: _302  and  _303
REMARK  125  A    between atoms: _305  and  _307
REMARK  126  A    between atoms: _307  and  _308
REMARK  127  A    between atoms: _307  and  _310
REMARK  128  A    between atoms: _310  and  _311
REMARK  129  A    between atoms: _321  and  _323
REMARK  130  A    between atoms: _323  and  _324
REMARK  131  A    between atoms: _326  and  _328
REMARK  132  A    between atoms: _328  and  _329
REMARK  133  A    between atoms: _328  and  _331
REMARK  134  A    between atoms: _331  and  _332
REMARK  135  A    between atoms: _335  and  _337
REMARK  136  A    between atoms: _337  and  _338
REMARK  137  A    between atoms: _337  and  _340
REMARK  138  A    between atoms: _340  and  _341
REMARK  139  A    between atoms: _344  and  _346
REMARK  140  A    between atoms: _346  and  _347
REMARK  141  A    between atoms: _349  and  _351
REMARK  142  A    between atoms: _351  and  _352
REMARK  143  A    between atoms: _355  and  _357
REMARK  144  A    between atoms: _357  and  _358
REMARK  145  A    between atoms: _357  and  _360
REMARK  146  A    between atoms: _360  and  _361
REMARK  147  A    between atoms: _366  and  _367
REMARK  148  A    between atoms: _369  and  _371
REMARK  149  A    between atoms: _371  and  _372
REMARK  150  A    between atoms: _371  and  _374
REMARK  151  A    between atoms: _374  and  _375
REMARK  152  A    between atoms: _375  and  _376
REMARK  153  A    between atoms: _379  and  _381
REMARK  154  A    between atoms: _381  and  _382
REMARK  155  A    between atoms: _381  and  _384
REMARK  156  A    between atoms: _384  and  _385
REMARK  157  A    between atoms: _388  and  _390
REMARK  158  A    between atoms: _390  and  _391
REMARK  159  A    between atoms: _394  and  _396
REMARK  160  A    between atoms: _396  and  _397
REMARK  161  A    between atoms: _396  and  _399
REMARK  162  A    between atoms: _399  and  _400
REMARK  163  A    between atoms: _400  and  _401
REMARK  164  A    between atoms: _401  and  _402
REMARK  165  A    between atoms: _411  and  _413
REMARK  166  A    between atoms: _413  and  _414
REMARK  167  A    between atoms: _413  and  _416
REMARK  168  A    between atoms: _416  and  _417
REMARK  169  A    between atoms: _420  and  _422
REMARK  170  A    between atoms: _422  and  _423
REMARK  171  A    between atoms: _422  and  _425
REMARK  172  A    between atoms: _425  and  _426
REMARK  173  A    between atoms: _436  and  _438
REMARK  174  A    between atoms: _438  and  _439
REMARK  175  A    between atoms: _438  and  _441
REMARK  176  A    between atoms: _441  and  _442
REMARK  177  A    between atoms: _447  and  _448
REMARK  178  A    between atoms: _450  and  _452
REMARK  179  A    between atoms: _452  and  _453
REMARK  180  A    between atoms: _452  and  _455
REMARK  181  A    between atoms: _455  and  _456
REMARK  182  A    between atoms: _461  and  _462
REMARK  183  A    between atoms: _464  and  _466
REMARK  184  A    between atoms: _466  and  _467
REMARK  185  A    between atoms: _466  and  _469
REMARK  186  A    between atoms: _469  and  _470
REMARK  187  A    between atoms: _470  and  _471
REMARK  188  A    between atoms: _471  and  _472
REMARK  189  A    between atoms: _472  and  _473
REMARK  190  A    between atoms: _477  and  _479
REMARK  191  A    between atoms: _479  and  _480
REMARK  192  A    between atoms: _479  and  _482
REMARK  193  A    between atoms: _482  and  _483
REMARK  194  A    between atoms: _486  and  _488
REMARK  195  A    between atoms: _488  and  _489
REMARK  196  A    between atoms: _488  and  _491
REMARK  197  A    between atoms: _494  and  _496
REMARK  198  A    between atoms: _496  and  _497
REMARK  199  A    between atoms: _496  and  _499
REMARK  200  A    between atoms: _499  and  _500
REMARK  201  A    between atoms: _503  and  _505
REMARK  202  A    between atoms: _505  and  _506
REMARK  203  A    between atoms: _505  and  _508
REMARK  204  A    between atoms: _508  and  _509
REMARK  205  A    between atoms: _511  and  _513
REMARK  206  A    between atoms: _513  and  _514
REMARK  207  A    between atoms: _516  and  _518
REMARK  208  A    between atoms: _518  and  _519
REMARK  209  A    between atoms: _518  and  _521
REMARK  210  A    between atoms: _521  and  _522
REMARK  211  A    between atoms: _525  and  _527
REMARK  212  A    between atoms: _527  and  _528
REMARK  213  A    between atoms: _527  and  _530
REMARK  214  A    between atoms: _530  and  _531
REMARK  215  A    between atoms: _534  and  _536
REMARK  216  A    between atoms: _536  and  _537
REMARK  217  A    between atoms: _536  and  _539
REMARK  218  A    between atoms: _539  and  _540
REMARK  219  A    between atoms: _545  and  _547
REMARK  220  A    between atoms: _547  and  _548
REMARK  221  A    between atoms: _547  and  _550
REMARK  222  A    between atoms: _550  and  _551
REMARK  223  A    between atoms: _554  and  _556
REMARK  224  A    between atoms: _556  and  _557
REMARK  225  A    between atoms: _556  and  _559
REMARK  226  A    between atoms: _559  and  _560
REMARK  227  A    between atoms: _560  and  _561
REMARK  228  A    between atoms: _561  and  _562
REMARK  229  A    between atoms: _571  and  _573
REMARK  230  A    between atoms: _573  and  _574
REMARK  231  A    between atoms: _573  and  _576
REMARK  232  A    between atoms: _576  and  _577
REMARK  233  A    between atoms: _580  and  _582
REMARK  234  A    between atoms: _582  and  _583
REMARK  235  A    between atoms: _585  and  _587
REMARK  236  A    between atoms: _587  and  _588
REMARK  237  A    between atoms: _587  and  _590
REMARK  238  A    between atoms: _590  and  _591
REMARK  239  A    between atoms: _591  and  _592
REMARK  240  A    between atoms: _592  and  _593
REMARK  241  A    between atoms: _602  and  _604
REMARK  242  A    between atoms: _604  and  _605
REMARK  243  A    between atoms: _604  and  _607
REMARK  244  A    between atoms: _607  and  _608
REMARK  245  A    between atoms: _608  and  _609
REMARK  246  A    between atoms: _609  and  _610
REMARK  247  A    between atoms: _610  and  _611
REMARK  248  A    between atoms: _615  and  _617
REMARK  249  A    between atoms: _617  and  _618
REMARK  250  A    between atoms: _617  and  _620
REMARK  251  A    between atoms: _620  and  _621
REMARK  252  A    between atoms: _627  and  _629
REMARK  253  A    between atoms: _629  and  _630
REMARK  254  A    between atoms: _633  and  _635
REMARK  255  A    between atoms: _635  and  _636
REMARK  256  A    between atoms: _635  and  _638
REMARK  257  A    between atoms: _638  and  _639
REMARK  258  A    between atoms: _642  and  _644
REMARK  259  A    between atoms: _644  and  _645
REMARK  260  A    between atoms: _644  and  _647
REMARK  261  A    between atoms: _647  and  _648
REMARK  262  A    between atoms: _650  and  _652
REMARK  263  A    between atoms: _652  and  _653
REMARK  264  A    between atoms: _652  and  _655
REMARK  265  A    between atoms: _655  and  _656
REMARK  266  A    between atoms: _656  and  _657
REMARK  267  A    between atoms: _662  and  _664
REMARK  268  A    between atoms: _664  and  _665
REMARK  269  A    between atoms: _664  and  _667
REMARK  270  A    between atoms: _667  and  _668
REMARK  271  A    between atoms: _670  and  _672
REMARK  272  A    between atoms: _672  and  _673
REMARK  273  A    between atoms: _672  and  _675
REMARK  274  A    between atoms: _675  and  _676
REMARK  275  A    between atoms: _679  and  _681
REMARK  276  A    between atoms: _681  and  _682
REMARK  277  A    between atoms: _684  and  _686
REMARK  278  A    between atoms: _686  and  _687
REMARK  279  A    between atoms: _686  and  _689
REMARK  280  A    between atoms: _689  and  _690
REMARK  281  A    between atoms: _693  and  _695
REMARK  282  A    between atoms: _695  and  _696
REMARK  283  A    between atoms: _695  and  _698
REMARK  284  A    between atoms: _701  and  _703
REMARK  285  A    between atoms: _703  and  _704
REMARK  286  A    between atoms: _706  and  _708
REMARK  287  A    between atoms: _708  and  _709
REMARK  288  A    between atoms: _712  and  _714
REMARK  289  A    between atoms: _714  and  _715
REMARK  290  A    between atoms: _714  and  _717
REMARK  291  A    between atoms: _720  and  _722
REMARK  292  A    between atoms: _722  and  _723
REMARK  293  A    between atoms: _722  and  _725
REMARK  294  A    between atoms: _725  and  _726
REMARK  295  A    between atoms: _726  and  _727
REMARK  296  A    between atoms: _729  and  _731
REMARK  297  A    between atoms: _731  and  _732
REMARK  298  A    between atoms: _731  and  _734
REMARK  299  A    between atoms: _734  and  _735
REMARK  300  A    between atoms: _735  and  _736
REMARK                            x       y       z     vdW  Elec       q    Type
REMARK                         _______ _______ _______ _____ _____    ______ ____
ROOT
ATOM      1  O   HOH     1      56.330  -8.588  11.099  0.00  0.00    +0.000 OA
ENDROOT
TORSDOF 0
REMARK  Name = ../refined-set-2016/4gid/4gid_pocket.pdb
REMARK  300 active torsions:
REMARK  status: ('A' for Active; 'I' for Inactive)
REMARK    1  A    between atoms: _1  and  _3
REMARK    2  A    between atoms: _3  and  _4
REMARK    3  A    between atoms: _6  and  _8
REMARK    4  A    between atoms: _8  and  _9
REMARK    5  A    between atoms: _8  and  _11
REMARK    6  A    between atoms: _11  and  _12
REMARK    7  A    between atoms: _12  and  _13
REMARK    8  A    between atoms: _13  and  _14
REMARK    9  A    between atoms: _14  and  _15
REMARK   10  A    between atoms: _19  and  _21
REMARK   11  A    between atoms: _21  and  _22
REMARK   12  A    between atoms: _21  and  _24
REMARK   13  A    between atoms: _24  and  _25
REMARK   14  A    between atoms: _27  and  _29
REMARK   15  A    between atoms: _29  and  _30
REMARK   16  A    between atoms: _32  and  _34
REMARK   17  A    between atoms: _34  and  _35
REMARK   18  A    between atoms: _34  and  _37
REMARK   19  A    between atoms: _37  and  _38
REMARK   20  A    between atoms: _38  and  _39
REMARK   21  A    between atoms: _44  and  _46
REMARK   22  A    between atoms: _46  and  _47
REMARK   23  A    between atoms: _49  and  _51
REMARK   24  A    between atoms: _51  and  _52
REMARK   25  A    between atoms: _51  and  _54
REMARK   26  A    between atoms: _54  and  _55
REMARK   27  A    between atoms: _60  and  _61
REMARK   28  A    between atoms: _63  and  _65
REMARK   29  A    between atoms: _65  and  _66
REMARK   30  A    between atoms: _65  and  _68
REMARK   31  A    between atoms: _68  and  _69
REMARK   32  A    between atoms: _74  and  _75
REMARK   33  A    between atoms: _77  and  _79
REMARK   34  A    between atoms: _79  and  _80
REMARK   35  A    between atoms: _79  and  _82
REMARK   36  A    between atoms: _82  and  _83
REMARK   37  A    between atoms: _86  and  _88
REMARK   38  A    between atoms: _88  and  _89
REMARK   39  A    between atoms: _88  and  _91
REMARK   40  A    between atoms: _94  and  _96
REMARK   41  A    between atoms: _96  and  _97
REMARK   42  A    between atoms: _96  and  _99
REMARK   43  A    between atoms: _99  and  _100
REMARK   44  A    between atoms: _103  and  _105
REMARK   45  A    between atoms: _105  and  _106
REMARK   46  A    between atoms: _105  and  _108
REMARK   47  A    between atoms: _108  and  _109
REMARK   48  A    between atoms: _112  and  _114
REMARK   49  A    between atoms: _114  and  _115
REMARK   50  A    between atoms: _117  and  _119
REMARK   51  A    between atoms: _119  and  _120
REMARK   52  A    between atoms: _119  and  _122
REMARK   53  A    between atoms: _122  and  _123
REMARK   54  A    between atoms: _125  and  _127
REMARK   55  A    between atoms: _127  and  _128
REMARK   56  A    between atoms: _127  and  _130
REMARK   57  A    between atoms: _130  and  _131
REMARK   58  A    between atoms: _133  and  _135
REMARK   59  A    between atoms: _135  and  _136
REMARK   60  A    between atoms: _135  and  _138
REMARK   61  A    between atoms: _138  and  _139
REMARK   62  A    between atoms: _144  and  _146
REMARK   63  A    between atoms: _146  and  _147
REMARK   64  A    between atoms: _146  and  _149
REMARK   65  A    between atoms: _149  and  _150
REMARK   66  A    between atoms: _155  and  _156
REMARK   67  A    between atoms: _158  and  _160
REMARK   68  A    between atoms: _160  and  _161
REMARK   69  A    between atoms: _160  and  _163
REMARK   70  A    between atoms: _167  and  _168
REMARK   71  A    between atoms: _173  and  _175
REMARK   72  A    between atoms: _175  and  _176
REMARK   73  A    between atoms: _175  and  _178
REMARK   74  A    between atoms: _178  and  _179
REMARK   75  A    between atoms: _184  and  _185
REMARK   76  A    between atoms: _187  and  _189
REMARK   77  A    between atoms: _189  and  _190
REMARK   78  A    between atoms: _189  and  _192
REMARK   79  A    between atoms: _192  and  _193
REMARK   80  A    between atoms: _196  and  _198
REMARK   81  A    between atoms: _198  and  _199
REMARK   82  A    between atoms: _198  and  _201
REMARK   83  A    between atoms: _201  and  _202
REMARK   84  A    between atoms: _202  and  _203
REMARK   85  A    between atoms: _208  and  _210
REMARK   86  A    between atoms: _210  and  _211
REMARK   87  A    between atoms: _213  and  _215
REMARK   88  A    between atoms: _215  and  _216
REMARK   89  A    between atoms: _215  and  _218
REMARK   90  A    between atoms: _218  and  _219
REMARK   91  A    between atoms: _219  and  _220
REMARK   92  A    between atoms: _220  and  _221
REMARK   93  A    between atoms: _221  and  _222
REMARK   94  A    between atoms: _226  and  _228
REMARK   95  A    between atoms: _228  and  _229
REMARK   96  A    between atoms: _228  and  _231
REMARK   97  A    between atoms: _231  and  _232
REMARK   98  A    between atoms: _242  and  _244
REMARK   99  A    between atoms: _244  and  _245
REMARK  100  A    between atoms: _244  and  _247
REMARK  101  A    between atoms: _247  and  _248
REMARK  102  A    between atoms: _251  and  _253
REMARK  103  A    between atoms: _253  and  _254
REMARK  104  A    between atoms: _253  and  _256
REMARK  105  A    between atoms: _256  and  _257
REMARK  106  A    between atoms: _257  and  _258
REMARK  107  A    between atoms: _258  and  _259
REMARK  108  A    between atoms: _259  and  _260
REMARK  109  A    between atoms: _264  and  _266
REMARK  110  A    between atoms: _266  and  _267
REMARK  111  A    between atoms: _266  and  _269
REMARK  112  A    between atoms: _269  and  _270
REMARK  113  A    between atoms: _276  and  _278
REMARK  114  A    between atoms: _278  and  _279
REMARK  115  A    between atoms: _278  and  _281
REMARK  116  A    between atoms: _281  and  _282
REMARK  117  A    between atoms: _288  and  _290
REMARK  118  A    between atoms: _290  and  _291
REMARK  119  A    between atoms: _290  and  _293
REMARK  120  A    between atoms: _293  and  _294
REMARK  121  A    between atoms: _297  and  _299
REMARK  122  A    between atoms: _299  and  _300
REMARK  123  A    between atoms: _299  and  _302
REMARK  124  A    between atoms: _302  and  _303
REMARK  125  A    between atoms: _305  and  _307
REMARK  126  A    between atoms: _307  and  _308
REMARK  127  A    between atoms: _307  and  _310
REMARK  128  A    between atoms: _310  and  _311
REMARK  129  A    between atoms: _321  and  _323
REMARK  130  A    between atoms: _323  and  _324
REMARK  131  A    between atoms: _326  and  _328
REMARK  132  A    between atoms: _328  and  _329
REMARK  133  A    between atoms: _328  and  _331
REMARK  134  A    between atoms: _331  and  _332
REMARK  135  A    between atoms: _335  and  _337
REMARK  136  A    between atoms: _337  and  _338
REMARK  137  A    between atoms: _337  and  _340
REMARK  138  A    between atoms: _340  and  _341
REMARK  139  A    between atoms: _344  and  _346
REMARK  140  A    between atoms: _346  and  _347
REMARK  141  A    between atoms: _349  and  _351
REMARK  142  A    between atoms: _351  and  _352
REMARK  143  A    between atoms: _355  and  _357
REMARK  144  A    between atoms: _357  and  _358
REMARK  145  A    between atoms: _357  and  _360
REMARK  146  A    between atoms: _360  and  _361
REMARK  147  A    between atoms: _366  and  _367
REMARK  148  A    between atoms: _369  and  _371
REMARK  149  A    between atoms: _371  and  _372
REMARK  150  A    between atoms: _371  and  _374
REMARK  151  A    between atoms: _374  and  _375
REMARK  152  A    between atoms: _375  and  _376
REMARK  153  A    between atoms: _379  and  _381
REMARK  154  A    between atoms: _381  and  _382
REMARK  155  A    between atoms: _381  and  _384
REMARK  156  A    between atoms: _384  and  _385
REMARK  157  A    between atoms: _388  and  _390
REMARK  158  A    between atoms: _390  and  _391
REMARK  159  A    between atoms: _394  and  _396
REMARK  160  A    between atoms: _396  and  _397
REMARK  161  A    between atoms: _396  and  _399
REMARK  162  A    between atoms: _399  and  _400
REMARK  163  A    between atoms: _400  and  _401
REMARK  164  A    between atoms: _401  and  _402
REMARK  165  A    between atoms: _411  and  _413
REMARK  166  A    between atoms: _413  and  _414
REMARK  167  A    between atoms: _413  and  _416
REMARK  168  A    between atoms: _416  and  _417
REMARK  169  A    between atoms: _420  and  _422
REMARK  170  A    between atoms: _422  and  _423
REMARK  171  A    between atoms: _422  and  _425
REMARK  172  A    between atoms: _425  and  _426
REMARK  173  A    between atoms: _436  and  _438
REMARK  174  A    between atoms: _438  and  _439
REMARK  175  A    between atoms: _438  and  _441
REMARK  176  A    between atoms: _441  and  _442
REMARK  177  A    between atoms: _447  and  _448
REMARK  178  A    between atoms: _450  and  _452
REMARK  179  A    between atoms: _452  and  _453
REMARK  180  A    between atoms: _452  and  _455
REMARK  181  A    between atoms: _455  and  _456
REMARK  182  A    between atoms: _461  and  _462
REMARK  183  A    between atoms: _464  and  _466
REMARK  184  A    between atoms: _466  and  _467
REMARK  185  A    between atoms: _466  and  _469
REMARK  186  A    between atoms: _469  and  _470
REMARK  187  A    between atoms: _470  and  _471
REMARK  188  A    between atoms: _471  and  _472
REMARK  189  A    between atoms: _472  and  _473
REMARK  190  A    between atoms: _477  and  _479
REMARK  191  A    between atoms: _479  and  _480
REMARK  192  A    between atoms: _479  and  _482
REMARK  193  A    between atoms: _482  and  _483
REMARK  194  A    between atoms: _486  and  _488
REMARK  195  A    between atoms: _488  and  _489
REMARK  196  A    between atoms: _488  and  _491
REMARK  197  A    between atoms: _494  and  _496
REMARK  198  A    between atoms: _496  and  _497
REMARK  199  A    between atoms: _496  and  _499
REMARK  200  A    between atoms: _499  and  _500
REMARK  201  A    between atoms: _503  and  _505
REMARK  202  A    between atoms: _505  and  _506
REMARK  203  A    between atoms: _505  and  _508
REMARK  204  A    between atoms: _508  and  _509
REMARK  205  A    between atoms: _511  and  _513
REMARK  206  A    between atoms: _513  and  _514
REMARK  207  A    between atoms: _516  and  _518
REMARK  208  A    between atoms: _518  and  _519
REMARK  209  A    between atoms: _518  and  _521
REMARK  210  A    between atoms: _521  and  _522
REMARK  211  A    between atoms: _525  and  _527
REMARK  212  A    between atoms: _527  and  _528
REMARK  213  A    between atoms: _527  and  _530
REMARK  214  A    between atoms: _530  and  _531
REMARK  215  A    between atoms: _534  and  _536
REMARK  216  A    between atoms: _536  and  _537
REMARK  217  A    between atoms: _536  and  _539
REMARK  218  A    between atoms: _539  and  _540
REMARK  219  A    between atoms: _545  and  _547
REMARK  220  A    between atoms: _547  and  _548
REMARK  221  A    between atoms: _547  and  _550
REMARK  222  A    between atoms: _550  and  _551
REMARK  223  A    between atoms: _554  and  _556
REMARK  224  A    between atoms: _556  and  _557
REMARK  225  A    between atoms: _556  and  _559
REMARK  226  A    between atoms: _559  and  _560
REMARK  227  A    between atoms: _560  and  _561
REMARK  228  A    between atoms: _561  and  _562
REMARK  229  A    between atoms: _571  and  _573
REMARK  230  A    between atoms: _573  and  _574
REMARK  231  A    between atoms: _573  and  _576
REMARK  232  A    between atoms: _576  and  _577
REMARK  233  A    between atoms: _580  and  _582
REMARK  234  A    between atoms: _582  and  _583
REMARK  235  A    between atoms: _585  and  _587
REMARK  236  A    between atoms: _587  and  _588
REMARK  237  A    between atoms: _587  and  _590
REMARK  238  A    between atoms: _590  and  _591
REMARK  239  A    between atoms: _591  and  _592
REMARK  240  A    between atoms: _592  and  _593
REMARK  241  A    between atoms: _602  and  _604
REMARK  242  A    between atoms: _604  and  _605
REMARK  243  A    between atoms: _604  and  _607
REMARK  244  A    between atoms: _607  and  _608
REMARK  245  A    between atoms: _608  and  _609
REMARK  246  A    between atoms: _609  and  _610
REMARK  247  A    between atoms: _610  and  _611
REMARK  248  A    between atoms: _615  and  _617
REMARK  249  A    between atoms: _617  and  _618
REMARK  250  A    between atoms: _617  and  _620
REMARK  251  A    between atoms: _620  and  _621
REMARK  252  A    between atoms: _627  and  _629
REMARK  253  A    between atoms: _629  and  _630
REMARK  254  A    between atoms: _633  and  _635
REMARK  255  A    between atoms: _635  and  _636
REMARK  256  A    between atoms: _635  and  _638
REMARK  257  A    between atoms: _638  and  _639
REMARK  258  A    between atoms: _642  and  _644
REMARK  259  A    between atoms: _644  and  _645
REMARK  260  A    between atoms: _644  and  _647
REMARK  261  A    between atoms: _647  and  _648
REMARK  262  A    between atoms: _650  and  _652
REMARK  263  A    between atoms: _652  and  _653
REMARK  264  A    between atoms: _652  and  _655
REMARK  265  A    between atoms: _655  and  _656
REMARK  266  A    between atoms: _656  and  _657
REMARK  267  A    between atoms: _662  and  _664
REMARK  268  A    between atoms: _664  and  _665
REMARK  269  A    between atoms: _664  and  _667
REMARK  270  A    between atoms: _667  and  _668
REMARK  271  A    between atoms: _670  and  _672
REMARK  272  A    between atoms: _672  and  _673
REMARK  273  A    between atoms: _672  and  _675
REMARK  274  A    between atoms: _675  and  _676
REMARK  275  A    between atoms: _679  and  _681
REMARK  276  A    between atoms: _681  and  _682
REMARK  277  A    between atoms: _684  and  _686
REMARK  278  A    between atoms: _686  and  _687
REMARK  279  A    between atoms: _686  and  _689
REMARK  280  A    between atoms: _689  and  _690
REMARK  281  A    between atoms: _693  and  _695
REMARK  282  A    between atoms: _695  and  _696
REMARK  283  A    between atoms: _695  and  _698
REMARK  284  A    between atoms: _701  and  _703
REMARK  285  A    between atoms: _703  and  _704
REMARK  286  A    between atoms: _706  and  _708
REMARK  287  A    between atoms: _708  and  _709
REMARK  288  A    between atoms: _712  and  _714
REMARK  289  A    between atoms: _714  and  _715
REMARK  290  A    between atoms: _714  and  _717
REMARK  291  A    between atoms: _720  and  _722
REMARK  292  A    between atoms: _722  and  _723
REMARK  293  A    between atoms: _722  and  _725
REMARK  294  A    between atoms: _725  and  _726
REMARK  295  A    between atoms: _726  and  _727
REMARK  296  A    between atoms: _729  and  _731
REMARK  297  A    between atoms: _731  and  _732
REMARK  298  A    between atoms: _731  and  _734
REMARK  299  A    between atoms: _734  and  _735
REMARK  300  A    between atoms: _735  and  _736
REMARK                            x       y       z     vdW  Elec       q    Type
REMARK                         _______ _______ _______ _____ _____    ______ ____
ROOT
ATOM      1  O   HOH     1      38.518  -4.509  18.289  0.00  0.00    +0.000 OA
ENDROOT
TORSDOF 0
REMARK  Name = ../refined-set-2016/4gid/4gid_pocket.pdb
REMARK  300 active torsions:
REMARK  status: ('A' for Active; 'I' for Inactive)
REMARK    1  A    between atoms: _1  and  _3
REMARK    2  A    between atoms: _3  and  _4
REMARK    3  A    between atoms: _6  and  _8
REMARK    4  A    between atoms: _8  and  _9
REMARK    5  A    between atoms: _8  and  _11
REMARK    6  A    between atoms: _11  and  _12
REMARK    7  A    between atoms: _12  and  _13
REMARK    8  A    between atoms: _13  and  _14
REMARK    9  A    between atoms: _14  and  _15
REMARK   10  A    between atoms: _19  and  _21
REMARK   11  A    between atoms: _21  and  _22
REMARK   12  A    between atoms: _21  and  _24
REMARK   13  A    between atoms: _24  and  _25
REMARK   14  A    between atoms: _27  and  _29
REMARK   15  A    between atoms: _29  and  _30
REMARK   16  A    between atoms: _32  and  _34
REMARK   17  A    between atoms: _34  and  _35
REMARK   18  A    between atoms: _34  and  _37
REMARK   19  A    between atoms: _37  and  _38
REMARK   20  A    between atoms: _38  and  _39
REMARK   21  A    between atoms: _44  and  _46
REMARK   22  A    between atoms: _46  and  _47
REMARK   23  A    between atoms: _49  and  _51
REMARK   24  A    between atoms: _51  and  _52
REMARK   25  A    between atoms: _51  and  _54
REMARK   26  A    between atoms: _54  and  _55
REMARK   27  A    between atoms: _60  and  _61
REMARK   28  A    between atoms: _63  and  _65
REMARK   29  A    between atoms: _65  and  _66
REMARK   30  A    between atoms: _65  and  _68
REMARK   31  A    between atoms: _68  and  _69
REMARK   32  A    between atoms: _74  and  _75
REMARK   33  A    between atoms: _77  and  _79
REMARK   34  A    between atoms: _79  and  _80
REMARK   35  A    between atoms: _79  and  _82
REMARK   36  A    between atoms: _82  and  _83
REMARK   37  A    between atoms: _86  and  _88
REMARK   38  A    between atoms: _88  and  _89
REMARK   39  A    between atoms: _88  and  _91
REMARK   40  A    between atoms: _94  and  _96
REMARK   41  A    between atoms: _96  and  _97
REMARK   42  A    between atoms: _96  and  _99
REMARK   43  A    between atoms: _99  and  _100
REMARK   44  A    between atoms: _103  and  _105
REMARK   45  A    between atoms: _105  and  _106
REMARK   46  A    between atoms: _105  and  _108
REMARK   47  A    between atoms: _108  and  _109
REMARK   48  A    between atoms: _112  and  _114
REMARK   49  A    between atoms: _114  and  _115
REMARK   50  A    between atoms: _117  and  _119
REMARK   51  A    between atoms: _119  and  _120
REMARK   52  A    between atoms: _119  and  _122
REMARK   53  A    between atoms: _122  and  _123
REMARK   54  A    between atoms: _125  and  _127
REMARK   55  A    between atoms: _127  and  _128
REMARK   56  A    between atoms: _127  and  _130
REMARK   57  A    between atoms: _130  and  _131
REMARK   58  A    between atoms: _133  and  _135
REMARK   59  A    between atoms: _135  and  _136
REMARK   60  A    between atoms: _135  and  _138
REMARK   61  A    between atoms: _138  and  _139
REMARK   62  A    between atoms: _144  and  _146
REMARK   63  A    between atoms: _146  and  _147
REMARK   64  A    between atoms: _146  and  _149
REMARK   65  A    between atoms: _149  and  _150
REMARK   66  A    between atoms: _155  and  _156
REMARK   67  A    between atoms: _158  and  _160
REMARK   68  A    between atoms: _160  and  _161
REMARK   69  A    between atoms: _160  and  _163
REMARK   70  A    between atoms: _167  and  _168
REMARK   71  A    between atoms: _173  and  _175
REMARK   72  A    between atoms: _175  and  _176
REMARK   73  A    between atoms: _175  and  _178
REMARK   74  A    between atoms: _178  and  _179
REMARK   75  A    between atoms: _184  and  _185
REMARK   76  A    between atoms: _187  and  _189
REMARK   77  A    between atoms: _189  and  _190
REMARK   78  A    between atoms: _189  and  _192
REMARK   79  A    between atoms: _192  and  _193
REMARK   80  A    between atoms: _196  and  _198
REMARK   81  A    between atoms: _198  and  _199
REMARK   82  A    between atoms: _198  and  _201
REMARK   83  A    between atoms: _201  and  _202
REMARK   84  A    between atoms: _202  and  _203
REMARK   85  A    between atoms: _208  and  _210
REMARK   86  A    between atoms: _210  and  _211
REMARK   87  A    between atoms: _213  and  _215
REMARK   88  A    between atoms: _215  and  _216
REMARK   89  A    between atoms: _215  and  _218
REMARK   90  A    between atoms: _218  and  _219
REMARK   91  A    between atoms: _219  and  _220
REMARK   92  A    between atoms: _220  and  _221
REMARK   93  A    between atoms: _221  and  _222
REMARK   94  A    between atoms: _226  and  _228
REMARK   95  A    between atoms: _228  and  _229
REMARK   96  A    between atoms: _228  and  _231
REMARK   97  A    between atoms: _231  and  _232
REMARK   98  A    between atoms: _242  and  _244
REMARK   99  A    between atoms: _244  and  _245
REMARK  100  A    between atoms: _244  and  _247
REMARK  101  A    between atoms: _247  and  _248
REMARK  102  A    between atoms: _251  and  _253
REMARK  103  A    between atoms: _253  and  _254
REMARK  104  A    between atoms: _253  and  _256
REMARK  105  A    between atoms: _256  and  _257
REMARK  106  A    between atoms: _257  and  _258
REMARK  107  A    between atoms: _258  and  _259
REMARK  108  A    between atoms: _259  and  _260
REMARK  109  A    between atoms: _264  and  _266
REMARK  110  A    between atoms: _266  and  _267
REMARK  111  A    between atoms: _266  and  _269
REMARK  112  A    between atoms: _269  and  _270
REMARK  113  A    between atoms: _276  and  _278
REMARK  114  A    between atoms: _278  and  _279
REMARK  115  A    between atoms: _278  and  _281
REMARK  116  A    between atoms: _281  and  _282
REMARK  117  A    between atoms: _288  and  _290
REMARK  118  A    between atoms: _290  and  _291
REMARK  119  A    between atoms: _290  and  _293
REMARK  120  A    between atoms: _293  and  _294
REMARK  121  A    between atoms: _297  and  _299
REMARK  122  A    between atoms: _299  and  _300
REMARK  123  A    between atoms: _299  and  _302
REMARK  124  A    between atoms: _302  and  _303
REMARK  125  A    between atoms: _305  and  _307
REMARK  126  A    between atoms: _307  and  _308
REMARK  127  A    between atoms: _307  and  _310
REMARK  128  A    between atoms: _310  and  _311
REMARK  129  A    between atoms: _321  and  _323
REMARK  130  A    between atoms: _323  and  _324
REMARK  131  A    between atoms: _326  and  _328
REMARK  132  A    between atoms: _328  and  _329
REMARK  133  A    between atoms: _328  and  _331
REMARK  134  A    between atoms: _331  and  _332
REMARK  135  A    between atoms: _335  and  _337
REMARK  136  A    between atoms: _337  and  _338
REMARK  137  A    between atoms: _337  and  _340
REMARK  138  A    between atoms: _340  and  _341
REMARK  139  A    between atoms: _344  and  _346
REMARK  140  A    between atoms: _346  and  _347
REMARK  141  A    between atoms: _349  and  _351
REMARK  142  A    between atoms: _351  and  _352
REMARK  143  A    between atoms: _355  and  _357
REMARK  144  A    between atoms: _357  and  _358
REMARK  145  A    between atoms: _357  and  _360
REMARK  146  A    between atoms: _360  and  _361
REMARK  147  A    between atoms: _366  and  _367
REMARK  148  A    between atoms: _369  and  _371
REMARK  149  A    between atoms: _371  and  _372
REMARK  150  A    between atoms: _371  and  _374
REMARK  151  A    between atoms: _374  and  _375
REMARK  152  A    between atoms: _375  and  _376
REMARK  153  A    between atoms: _379  and  _381
REMARK  154  A    between atoms: _381  and  _382
REMARK  155  A    between atoms: _381  and  _384
REMARK  156  A    between atoms: _384  and  _385
REMARK  157  A    between atoms: _388  and  _390
REMARK  158  A    between atoms: _390  and  _391
REMARK  159  A    between atoms: _394  and  _396
REMARK  160  A    between atoms: _396  and  _397
REMARK  161  A    between atoms: _396  and  _399
REMARK  162  A    between atoms: _399  and  _400
REMARK  163  A    between atoms: _400  and  _401
REMARK  164  A    between atoms: _401  and  _402
REMARK  165  A    between atoms: _411  and  _413
REMARK  166  A    between atoms: _413  and  _414
REMARK  167  A    between atoms: _413  and  _416
REMARK  168  A    between atoms: _416  and  _417
REMARK  169  A    between atoms: _420  and  _422
REMARK  170  A    between atoms: _422  and  _423
REMARK  171  A    between atoms: _422  and  _425
REMARK  172  A    between atoms: _425  and  _426
REMARK  173  A    between atoms: _436  and  _438
REMARK  174  A    between atoms: _438  and  _439
REMARK  175  A    between atoms: _438  and  _441
REMARK  176  A    between atoms: _441  and  _442
REMARK  177  A    between atoms: _447  and  _448
REMARK  178  A    between atoms: _450  and  _452
REMARK  179  A    between atoms: _452  and  _453
REMARK  180  A    between atoms: _452  and  _455
REMARK  181  A    between atoms: _455  and  _456
REMARK  182  A    between atoms: _461  and  _462
REMARK  183  A    between atoms: _464  and  _466
REMARK  184  A    between atoms: _466  and  _467
REMARK  185  A    between atoms: _466  and  _469
REMARK  186  A    between atoms: _469  and  _470
REMARK  187  A    between atoms: _470  and  _471
REMARK  188  A    between atoms: _471  and  _472
REMARK  189  A    between atoms: _472  and  _473
REMARK  190  A    between atoms: _477  and  _479
REMARK  191  A    between atoms: _479  and  _480
REMARK  192  A    between atoms: _479  and  _482
REMARK  193  A    between atoms: _482  and  _483
REMARK  194  A    between atoms: _486  and  _488
REMARK  195  A    between atoms: _488  and  _489
REMARK  196  A    between atoms: _488  and  _491
REMARK  197  A    between atoms: _494  and  _496
REMARK  198  A    between atoms: _496  and  _497
REMARK  199  A    between atoms: _496  and  _499
REMARK  200  A    between atoms: _499  and  _500
REMARK  201  A    between atoms: _503  and  _505
REMARK  202  A    between atoms: _505  and  _506
REMARK  203  A    between atoms: _505  and  _508
REMARK  204  A    between atoms: _508  and  _509
REMARK  205  A    between atoms: _511  and  _513
REMARK  206  A    between atoms: _513  and  _514
REMARK  207  A    between atoms: _516  and  _518
REMARK  208  A    between atoms: _518  and  _519
REMARK  209  A    between atoms: _518  and  _521
REMARK  210  A    between atoms: _521  and  _522
REMARK  211  A    between atoms: _525  and  _527
REMARK  212  A    between atoms: _527  and  _528
REMARK  213  A    between atoms: _527  and  _530
REMARK  214  A    between atoms: _530  and  _531
REMARK  215  A    between atoms: _534  and  _536
REMARK  216  A    between atoms: _536  and  _537
REMARK  217  A    between atoms: _536  and  _539
REMARK  218  A    between atoms: _539  and  _540
REMARK  219  A    between atoms: _545  and  _547
REMARK  220  A    between atoms: _547  and  _548
REMARK  221  A    between atoms: _547  and  _550
REMARK  222  A    between atoms: _550  and  _551
REMARK  223  A    between atoms: _554  and  _556
REMARK  224  A    between atoms: _556  and  _557
REMARK  225  A    between atoms: _556  and  _559
REMARK  226  A    between atoms: _559  and  _560
REMARK  227  A    between atoms: _560  and  _561
REMARK  228  A    between atoms: _561  and  _562
REMARK  229  A    between atoms: _571  and  _573
REMARK  230  A    between atoms: _573  and  _574
REMARK  231  A    between atoms: _573  and  _576
REMARK  232  A    between atoms: _576  and  _577
REMARK  233  A    between atoms: _580  and  _582
REMARK  234  A    between atoms: _582  and  _583
REMARK  235  A    between atoms: _585  and  _587
REMARK  236  A    between atoms: _587  and  _588
REMARK  237  A    between atoms: _587  and  _590
REMARK  238  A    between atoms: _590  and  _591
REMARK  239  A    between atoms: _591  and  _592
REMARK  240  A    between atoms: _592  and  _593
REMARK  241  A    between atoms: _602  and  _604
REMARK  242  A    between atoms: _604  and  _605
REMARK  243  A    between atoms: _604  and  _607
REMARK  244  A    between atoms: _607  and  _608
REMARK  245  A    between atoms: _608  and  _609
REMARK  246  A    between atoms: _609  and  _610
REMARK  247  A    between atoms: _610  and  _611
REMARK  248  A    between atoms: _615  and  _617
REMARK  249  A    between atoms: _617  and  _618
REMARK  250  A    between atoms: _617  and  _620
REMARK  251  A    between atoms: _620  and  _621
REMARK  252  A    between atoms: _627  and  _629
REMARK  253  A    between atoms: _629  and  _630
REMARK  254  A    between atoms: _633  and  _635
REMARK  255  A    between atoms: _635  and  _636
REMARK  256  A    between atoms: _635  and  _638
REMARK  257  A    between atoms: _638  and  _639
REMARK  258  A    between atoms: _642  and  _644
REMARK  259  A    between atoms: _644  and  _645
REMARK  260  A    between atoms: _644  and  _647
REMARK  261  A    between atoms: _647  and  _648
REMARK  262  A    between atoms: _650  and  _652
REMARK  263  A    between atoms: _652  and  _653
REMARK  264  A    between atoms: _652  and  _655
REMARK  265  A    between atoms: _655  and  _656
REMARK  266  A    between atoms: _656  and  _657
REMARK  267  A    between atoms: _662  and  _664
REMARK  268  A    between atoms: _664  and  _665
REMARK  269  A    between atoms: _664  and  _667
REMARK  270  A    between atoms: _667  and  _668
REMARK  271  A    between atoms: _670  and  _672
REMARK  272  A    between atoms: _672  and  _673
REMARK  273  A    between atoms: _672  and  _675
REMARK  274  A    between atoms: _675  and  _676
REMARK  275  A    between atoms: _679  and  _681
REMARK  276  A    between atoms: _681  and  _682
REMARK  277  A    between atoms: _684  and  _686
REMARK  278  A    between atoms: _686  and  _687
REMARK  279  A    between atoms: _686  and  _689
REMARK  280  A    between atoms: _689  and  _690
REMARK  281  A    between atoms: _693  and  _695
REMARK  282  A    between atoms: _695  and  _696
REMARK  283  A    between atoms: _695  and  _698
REMARK  284  A    between atoms: _701  and  _703
REMARK  285  A    between atoms: _703  and  _704
REMARK  286  A    between atoms: _706  and  _708
REMARK  287  A    between atoms: _708  and  _709
REMARK  288  A    between atoms: _712  and  _714
REMARK  289  A    between atoms: _714  and  _715
REMARK  290  A    between atoms: _714  and  _717
REMARK  291  A    between atoms: _720  and  _722
REMARK  292  A    between atoms: _722  and  _723
REMARK  293  A    between atoms: _722  and  _725
REMARK  294  A    between atoms: _725  and  _726
REMARK  295  A    between atoms: _726  and  _727
REMARK  296  A    between atoms: _729  and  _731
REMARK  297  A    between atoms: _731  and  _732
REMARK  298  A    between atoms: _731  and  _734
REMARK  299  A    between atoms: _734  and  _735
REMARK  300  A    between atoms: _735  and  _736
REMARK                            x       y       z     vdW  Elec       q    Type
REMARK                         _______ _______ _______ _____ _____    ______ ____
ROOT
ATOM      1  O   HOH     1      43.119  -8.054  18.895  0.00  0.00    +0.000 OA
ENDROOT
TORSDOF 0
REMARK  Name = ../refined-set-2016/4gid/4gid_pocket.pdb
REMARK  300 active torsions:
REMARK  status: ('A' for Active; 'I' for Inactive)
REMARK    1  A    between atoms: _1  and  _3
REMARK    2  A    between atoms: _3  and  _4
REMARK    3  A    between atoms: _6  and  _8
REMARK    4  A    between atoms: _8  and  _9
REMARK    5  A    between atoms: _8  and  _11
REMARK    6  A    between atoms: _11  and  _12
REMARK    7  A    between atoms: _12  and  _13
REMARK    8  A    between atoms: _13  and  _14
REMARK    9  A    between atoms: _14  and  _15
REMARK   10  A    between atoms: _19  and  _21
REMARK   11  A    between atoms: _21  and  _22
REMARK   12  A    between atoms: _21  and  _24
REMARK   13  A    between atoms: _24  and  _25
REMARK   14  A    between atoms: _27  and  _29
REMARK   15  A    between atoms: _29  and  _30
REMARK   16  A    between atoms: _32  and  _34
REMARK   17  A    between atoms: _34  and  _35
REMARK   18  A    between atoms: _34  and  _37
REMARK   19  A    between atoms: _37  and  _38
REMARK   20  A    between atoms: _38  and  _39
REMARK   21  A    between atoms: _44  and  _46
REMARK   22  A    between atoms: _46  and  _47
REMARK   23  A    between atoms: _49  and  _51
REMARK   24  A    between atoms: _51  and  _52
REMARK   25  A    between atoms: _51  and  _54
REMARK   26  A    between atoms: _54  and  _55
REMARK   27  A    between atoms: _60  and  _61
REMARK   28  A    between atoms: _63  and  _65
REMARK   29  A    between atoms: _65  and  _66
REMARK   30  A    between atoms: _65  and  _68
REMARK   31  A    between atoms: _68  and  _69
REMARK   32  A    between atoms: _74  and  _75
REMARK   33  A    between atoms: _77  and  _79
REMARK   34  A    between atoms: _79  and  _80
REMARK   35  A    between atoms: _79  and  _82
REMARK   36  A    between atoms: _82  and  _83
REMARK   37  A    between atoms: _86  and  _88
REMARK   38  A    between atoms: _88  and  _89
REMARK   39  A    between atoms: _88  and  _91
REMARK   40  A    between atoms: _94  and  _96
REMARK   41  A    between atoms: _96  and  _97
REMARK   42  A    between atoms: _96  and  _99
REMARK   43  A    between atoms: _99  and  _100
REMARK   44  A    between atoms: _103  and  _105
REMARK   45  A    between atoms: _105  and  _106
REMARK   46  A    between atoms: _105  and  _108
REMARK   47  A    between atoms: _108  and  _109
REMARK   48  A    between atoms: _112  and  _114
REMARK   49  A    between atoms: _114  and  _115
REMARK   50  A    between atoms: _117  and  _119
REMARK   51  A    between atoms: _119  and  _120
REMARK   52  A    between atoms: _119  and  _122
REMARK   53  A    between atoms: _122  and  _123
REMARK   54  A    between atoms: _125  and  _127
REMARK   55  A    between atoms: _127  and  _128
REMARK   56  A    between atoms: _127  and  _130
REMARK   57  A    between atoms: _130  and  _131
REMARK   58  A    between atoms: _133  and  _135
REMARK   59  A    between atoms: _135  and  _136
REMARK   60  A    between atoms: _135  and  _138
REMARK   61  A    between atoms: _138  and  _139
REMARK   62  A    between atoms: _144  and  _146
REMARK   63  A    between atoms: _146  and  _147
REMARK   64  A    between atoms: _146  and  _149
REMARK   65  A    between atoms: _149  and  _150
REMARK   66  A    between atoms: _155  and  _156
REMARK   67  A    between atoms: _158  and  _160
REMARK   68  A    between atoms: _160  and  _161
REMARK   69  A    between atoms: _160  and  _163
REMARK   70  A    between atoms: _167  and  _168
REMARK   71  A    between atoms: _173  and  _175
REMARK   72  A    between atoms: _175  and  _176
REMARK   73  A    between atoms: _175  and  _178
REMARK   74  A    between atoms: _178  and  _179
REMARK   75  A    between atoms: _184  and  _185
REMARK   76  A    between atoms: _187  and  _189
REMARK   77  A    between atoms: _189  and  _190
REMARK   78  A    between atoms: _189  and  _192
REMARK   79  A    between atoms: _192  and  _193
REMARK   80  A    between atoms: _196  and  _198
REMARK   81  A    between atoms: _198  and  _199
REMARK   82  A    between atoms: _198  and  _201
REMARK   83  A    between atoms: _201  and  _202
REMARK   84  A    between atoms: _202  and  _203
REMARK   85  A    between atoms: _208  and  _210
REMARK   86  A    between atoms: _210  and  _211
REMARK   87  A    between atoms: _213  and  _215
REMARK   88  A    between atoms: _215  and  _216
REMARK   89  A    between atoms: _215  and  _218
REMARK   90  A    between atoms: _218  and  _219
REMARK   91  A    between atoms: _219  and  _220
REMARK   92  A    between atoms: _220  and  _221
REMARK   93  A    between atoms: _221  and  _222
REMARK   94  A    between atoms: _226  and  _228
REMARK   95  A    between atoms: _228  and  _229
REMARK   96  A    between atoms: _228  and  _231
REMARK   97  A    between atoms: _231  and  _232
REMARK   98  A    between atoms: _242  and  _244
REMARK   99  A    between atoms: _244  and  _245
REMARK  100  A    between atoms: _244  and  _247
REMARK  101  A    between atoms: _247  and  _248
REMARK  102  A    between atoms: _251  and  _253
REMARK  103  A    between atoms: _253  and  _254
REMARK  104  A    between atoms: _253  and  _256
REMARK  105  A    between atoms: _256  and  _257
REMARK  106  A    between atoms: _257  and  _258
REMARK  107  A    between atoms: _258  and  _259
REMARK  108  A    between atoms: _259  and  _260
REMARK  109  A    between atoms: _264  and  _266
REMARK  110  A    between atoms: _266  and  _267
REMARK  111  A    between atoms: _266  and  _269
REMARK  112  A    between atoms: _269  and  _270
REMARK  113  A    between atoms: _276  and  _278
REMARK  114  A    between atoms: _278  and  _279
REMARK  115  A    between atoms: _278  and  _281
REMARK  116  A    between atoms: _281  and  _282
REMARK  117  A    between atoms: _288  and  _290
REMARK  118  A    between atoms: _290  and  _291
REMARK  119  A    between atoms: _290  and  _293
REMARK  120  A    between atoms: _293  and  _294
REMARK  121  A    between atoms: _297  and  _299
REMARK  122  A    between atoms: _299  and  _300
REMARK  123  A    between atoms: _299  and  _302
REMARK  124  A    between atoms: _302  and  _303
REMARK  125  A    between atoms: _305  and  _307
REMARK  126  A    between atoms: _307  and  _308
REMARK  127  A    between atoms: _307  and  _310
REMARK  128  A    between atoms: _310  and  _311
REMARK  129  A    between atoms: _321  and  _323
REMARK  130  A    between atoms: _323  and  _324
REMARK  131  A    between atoms: _326  and  _328
REMARK  132  A    between atoms: _328  and  _329
REMARK  133  A    between atoms: _328  and  _331
REMARK  134  A    between atoms: _331  and  _332
REMARK  135  A    between atoms: _335  and  _337
REMARK  136  A    between atoms: _337  and  _338
REMARK  137  A    between atoms: _337  and  _340
REMARK  138  A    between atoms: _340  and  _341
REMARK  139  A    between atoms: _344  and  _346
REMARK  140  A    between atoms: _346  and  _347
REMARK  141  A    between atoms: _349  and  _351
REMARK  142  A    between atoms: _351  and  _352
REMARK  143  A    between atoms: _355  and  _357
REMARK  144  A    between atoms: _357  and  _358
REMARK  145  A    between atoms: _357  and  _360
REMARK  146  A    between atoms: _360  and  _361
REMARK  147  A    between atoms: _366  and  _367
REMARK  148  A    between atoms: _369  and  _371
REMARK  149  A    between atoms: _371  and  _372
REMARK  150  A    between atoms: _371  and  _374
REMARK  151  A    between atoms: _374  and  _375
REMARK  152  A    between atoms: _375  and  _376
REMARK  153  A    between atoms: _379  and  _381
REMARK  154  A    between atoms: _381  and  _382
REMARK  155  A    between atoms: _381  and  _384
REMARK  156  A    between atoms: _384  and  _385
REMARK  157  A    between atoms: _388  and  _390
REMARK  158  A    between atoms: _390  and  _391
REMARK  159  A    between atoms: _394  and  _396
REMARK  160  A    between atoms: _396  and  _397
REMARK  161  A    between atoms: _396  and  _399
REMARK  162  A    between atoms: _399  and  _400
REMARK  163  A    between atoms: _400  and  _401
REMARK  164  A    between atoms: _401  and  _402
REMARK  165  A    between atoms: _411  and  _413
REMARK  166  A    between atoms: _413  and  _414
REMARK  167  A    between atoms: _413  and  _416
REMARK  168  A    between atoms: _416  and  _417
REMARK  169  A    between atoms: _420  and  _422
REMARK  170  A    between atoms: _422  and  _423
REMARK  171  A    between atoms: _422  and  _425
REMARK  172  A    between atoms: _425  and  _426
REMARK  173  A    between atoms: _436  and  _438
REMARK  174  A    between atoms: _438  and  _439
REMARK  175  A    between atoms: _438  and  _441
REMARK  176  A    between atoms: _441  and  _442
REMARK  177  A    between atoms: _447  and  _448
REMARK  178  A    between atoms: _450  and  _452
REMARK  179  A    between atoms: _452  and  _453
REMARK  180  A    between atoms: _452  and  _455
REMARK  181  A    between atoms: _455  and  _456
REMARK  182  A    between atoms: _461  and  _462
REMARK  183  A    between atoms: _464  and  _466
REMARK  184  A    between atoms: _466  and  _467
REMARK  185  A    between atoms: _466  and  _469
REMARK  186  A    between atoms: _469  and  _470
REMARK  187  A    between atoms: _470  and  _471
REMARK  188  A    between atoms: _471  and  _472
REMARK  189  A    between atoms: _472  and  _473
REMARK  190  A    between atoms: _477  and  _479
REMARK  191  A    between atoms: _479  and  _480
REMARK  192  A    between atoms: _479  and  _482
REMARK  193  A    between atoms: _482  and  _483
REMARK  194  A    between atoms: _486  and  _488
REMARK  195  A    between atoms: _488  and  _489
REMARK  196  A    between atoms: _488  and  _491
REMARK  197  A    between atoms: _494  and  _496
REMARK  198  A    between atoms: _496  and  _497
REMARK  199  A    between atoms: _496  and  _499
REMARK  200  A    between atoms: _499  and  _500
REMARK  201  A    between atoms: _503  and  _505
REMARK  202  A    between atoms: _505  and  _506
REMARK  203  A    between atoms: _505  and  _508
REMARK  204  A    between atoms: _508  and  _509
REMARK  205  A    between atoms: _511  and  _513
REMARK  206  A    between atoms: _513  and  _514
REMARK  207  A    between atoms: _516  and  _518
REMARK  208  A    between atoms: _518  and  _519
REMARK  209  A    between atoms: _518  and  _521
REMARK  210  A    between atoms: _521  and  _522
REMARK  211  A    between atoms: _525  and  _527
REMARK  212  A    between atoms: _527  and  _528
REMARK  213  A    between atoms: _527  and  _530
REMARK  214  A    between atoms: _530  and  _531
REMARK  215  A    between atoms: _534  and  _536
REMARK  216  A    between atoms: _536  and  _537
REMARK  217  A    between atoms: _536  and  _539
REMARK  218  A    between atoms: _539  and  _540
REMARK  219  A    between atoms: _545  and  _547
REMARK  220  A    between atoms: _547  and  _548
REMARK  221  A    between atoms: _547  and  _550
REMARK  222  A    between atoms: _550  and  _551
REMARK  223  A    between atoms: _554  and  _556
REMARK  224  A    between atoms: _556  and  _557
REMARK  225  A    between atoms: _556  and  _559
REMARK  226  A    between atoms: _559  and  _560
REMARK  227  A    between atoms: _560  and  _561
REMARK  228  A    between atoms: _561  and  _562
REMARK  229  A    between atoms: _571  and  _573
REMARK  230  A    between atoms: _573  and  _574
REMARK  231  A    between atoms: _573  and  _576
REMARK  232  A    between atoms: _576  and  _577
REMARK  233  A    between atoms: _580  and  _582
REMARK  234  A    between atoms: _582  and  _583
REMARK  235  A    between atoms: _585  and  _587
REMARK  236  A    between atoms: _587  and  _588
REMARK  237  A    between atoms: _587  and  _590
REMARK  238  A    between atoms: _590  and  _591
REMARK  239  A    between atoms: _591  and  _592
REMARK  240  A    between atoms: _592  and  _593
REMARK  241  A    between atoms: _602  and  _604
REMARK  242  A    between atoms: _604  and  _605
REMARK  243  A    between atoms: _604  and  _607
REMARK  244  A    between atoms: _607  and  _608
REMARK  245  A    between atoms: _608  and  _609
REMARK  246  A    between atoms: _609  and  _610
REMARK  247  A    between atoms: _610  and  _611
REMARK  248  A    between atoms: _615  and  _617
REMARK  249  A    between atoms: _617  and  _618
REMARK  250  A    between atoms: _617  and  _620
REMARK  251  A    between atoms: _620  and  _621
REMARK  252  A    between atoms: _627  and  _629
REMARK  253  A    between atoms: _629  and  _630
REMARK  254  A    between atoms: _633  and  _635
REMARK  255  A    between atoms: _635  and  _636
REMARK  256  A    between atoms: _635  and  _638
REMARK  257  A    between atoms: _638  and  _639
REMARK  258  A    between atoms: _642  and  _644
REMARK  259  A    between atoms: _644  and  _645
REMARK  260  A    between atoms: _644  and  _647
REMARK  261  A    between atoms: _647  and  _648
REMARK  262  A    between atoms: _650  and  _652
REMARK  263  A    between atoms: _652  and  _653
REMARK  264  A    between atoms: _652  and  _655
REMARK  265  A    between atoms: _655  and  _656
REMARK  266  A    between atoms: _656  and  _657
REMARK  267  A    between atoms: _662  and  _664
REMARK  268  A    between atoms: _664  and  _665
REMARK  269  A    between atoms: _664  and  _667
REMARK  270  A    between atoms: _667  and  _668
REMARK  271  A    between atoms: _670  and  _672
REMARK  272  A    between atoms: _672  and  _673
REMARK  273  A    between atoms: _672  and  _675
REMARK  274  A    between atoms: _675  and  _676
REMARK  275  A    between atoms: _679  and  _681
REMARK  276  A    between atoms: _681  and  _682
REMARK  277  A    between atoms: _684  and  _686
REMARK  278  A    between atoms: _686  and  _687
REMARK  279  A    between atoms: _686  and  _689
REMARK  280  A    between atoms: _689  and  _690
REMARK  281  A    between atoms: _693  and  _695
REMARK  282  A    between atoms: _695  and  _696
REMARK  283  A    between atoms: _695  and  _698
REMARK  284  A    between atoms: _701  and  _703
REMARK  285  A    between atoms: _703  and  _704
REMARK  286  A    between atoms: _706  and  _708
REMARK  287  A    between atoms: _708  and  _709
REMARK  288  A    between atoms: _712  and  _714
REMARK  289  A    between atoms: _714  and  _715
REMARK  290  A    between atoms: _714  and  _717
REMARK  291  A    between atoms: _720  and  _722
REMARK  292  A    between atoms: _722  and  _723
REMARK  293  A    between atoms: _722  and  _725
REMARK  294  A    between atoms: _725  and  _726
REMARK  295  A    between atoms: _726  and  _727
REMARK  296  A    between atoms: _729  and  _731
REMARK  297  A    between atoms: _731  and  _732
REMARK  298  A    between atoms: _731  and  _734
REMARK  299  A    between atoms: _734  and  _735
REMARK  300  A    between atoms: _735  and  _736
REMARK                            x       y       z     vdW  Elec       q    Type
REMARK                         _______ _______ _______ _____ _____    ______ ____
ROOT
ATOM      1  O   HOH     1      47.321  -0.121  15.231  0.00  0.00    +0.000 OA
ENDROOT
TORSDOF 0
REMARK  Name = ../refined-set-2016/4gid/4gid_pocket.pdb
REMARK  300 active torsions:
REMARK  status: ('A' for Active; 'I' for Inactive)
REMARK    1  A    between atoms: _1  and  _3
REMARK    2  A    between atoms: _3  and  _4
REMARK    3  A    between atoms: _6  and  _8
REMARK    4  A    between atoms: _8  and  _9
REMARK    5  A    between atoms: _8  and  _11
REMARK    6  A    between atoms: _11  and  _12
REMARK    7  A    between atoms: _12  and  _13
REMARK    8  A    between atoms: _13  and  _14
REMARK    9  A    between atoms: _14  and  _15
REMARK   10  A    between atoms: _19  and  _21
REMARK   11  A    between atoms: _21  and  _22
REMARK   12  A    between atoms: _21  and  _24
REMARK   13  A    between atoms: _24  and  _25
REMARK   14  A    between atoms: _27  and  _29
REMARK   15  A    between atoms: _29  and  _30
REMARK   16  A    between atoms: _32  and  _34
REMARK   17  A    between atoms: _34  and  _35
REMARK   18  A    between atoms: _34  and  _37
REMARK   19  A    between atoms: _37  and  _38
REMARK   20  A    between atoms: _38  and  _39
REMARK   21  A    between atoms: _44  and  _46
REMARK   22  A    between atoms: _46  and  _47
REMARK   23  A    between atoms: _49  and  _51
REMARK   24  A    between atoms: _51  and  _52
REMARK   25  A    between atoms: _51  and  _54
REMARK   26  A    between atoms: _54  and  _55
REMARK   27  A    between atoms: _60  and  _61
REMARK   28  A    between atoms: _63  and  _65
REMARK   29  A    between atoms: _65  and  _66
REMARK   30  A    between atoms: _65  and  _68
REMARK   31  A    between atoms: _68  and  _69
REMARK   32  A    between atoms: _74  and  _75
REMARK   33  A    between atoms: _77  and  _79
REMARK   34  A    between atoms: _79  and  _80
REMARK   35  A    between atoms: _79  and  _82
REMARK   36  A    between atoms: _82  and  _83
REMARK   37  A    between atoms: _86  and  _88
REMARK   38  A    between atoms: _88  and  _89
REMARK   39  A    between atoms: _88  and  _91
REMARK   40  A    between atoms: _94  and  _96
REMARK   41  A    between atoms: _96  and  _97
REMARK   42  A    between atoms: _96  and  _99
REMARK   43  A    between atoms: _99  and  _100
REMARK   44  A    between atoms: _103  and  _105
REMARK   45  A    between atoms: _105  and  _106
REMARK   46  A    between atoms: _105  and  _108
REMARK   47  A    between atoms: _108  and  _109
REMARK   48  A    between atoms: _112  and  _114
REMARK   49  A    between atoms: _114  and  _115
REMARK   50  A    between atoms: _117  and  _119
REMARK   51  A    between atoms: _119  and  _120
REMARK   52  A    between atoms: _119  and  _122
REMARK   53  A    between atoms: _122  and  _123
REMARK   54  A    between atoms: _125  and  _127
REMARK   55  A    between atoms: _127  and  _128
REMARK   56  A    between atoms: _127  and  _130
REMARK   57  A    between atoms: _130  and  _131
REMARK   58  A    between atoms: _133  and  _135
REMARK   59  A    between atoms: _135  and  _136
REMARK   60  A    between atoms: _135  and  _138
REMARK   61  A    between atoms: _138  and  _139
REMARK   62  A    between atoms: _144  and  _146
REMARK   63  A    between atoms: _146  and  _147
REMARK   64  A    between atoms: _146  and  _149
REMARK   65  A    between atoms: _149  and  _150
REMARK   66  A    between atoms: _155  and  _156
REMARK   67  A    between atoms: _158  and  _160
REMARK   68  A    between atoms: _160  and  _161
REMARK   69  A    between atoms: _160  and  _163
REMARK   70  A    between atoms: _167  and  _168
REMARK   71  A    between atoms: _173  and  _175
REMARK   72  A    between atoms: _175  and  _176
REMARK   73  A    between atoms: _175  and  _178
REMARK   74  A    between atoms: _178  and  _179
REMARK   75  A    between atoms: _184  and  _185
REMARK   76  A    between atoms: _187  and  _189
REMARK   77  A    between atoms: _189  and  _190
REMARK   78  A    between atoms: _189  and  _192
REMARK   79  A    between atoms: _192  and  _193
REMARK   80  A    between atoms: _196  and  _198
REMARK   81  A    between atoms: _198  and  _199
REMARK   82  A    between atoms: _198  and  _201
REMARK   83  A    between atoms: _201  and  _202
REMARK   84  A    between atoms: _202  and  _203
REMARK   85  A    between atoms: _208  and  _210
REMARK   86  A    between atoms: _210  and  _211
REMARK   87  A    between atoms: _213  and  _215
REMARK   88  A    between atoms: _215  and  _216
REMARK   89  A    between atoms: _215  and  _218
REMARK   90  A    between atoms: _218  and  _219
REMARK   91  A    between atoms: _219  and  _220
REMARK   92  A    between atoms: _220  and  _221
REMARK   93  A    between atoms: _221  and  _222
REMARK   94  A    between atoms: _226  and  _228
REMARK   95  A    between atoms: _228  and  _229
REMARK   96  A    between atoms: _228  and  _231
REMARK   97  A    between atoms: _231  and  _232
REMARK   98  A    between atoms: _242  and  _244
REMARK   99  A    between atoms: _244  and  _245
REMARK  100  A    between atoms: _244  and  _247
REMARK  101  A    between atoms: _247  and  _248
REMARK  102  A    between atoms: _251  and  _253
REMARK  103  A    between atoms: _253  and  _254
REMARK  104  A    between atoms: _253  and  _256
REMARK  105  A    between atoms: _256  and  _257
REMARK  106  A    between atoms: _257  and  _258
REMARK  107  A    between atoms: _258  and  _259
REMARK  108  A    between atoms: _259  and  _260
REMARK  109  A    between atoms: _264  and  _266
REMARK  110  A    between atoms: _266  and  _267
REMARK  111  A    between atoms: _266  and  _269
REMARK  112  A    between atoms: _269  and  _270
REMARK  113  A    between atoms: _276  and  _278
REMARK  114  A    between atoms: _278  and  _279
REMARK  115  A    between atoms: _278  and  _281
REMARK  116  A    between atoms: _281  and  _282
REMARK  117  A    between atoms: _288  and  _290
REMARK  118  A    between atoms: _290  and  _291
REMARK  119  A    between atoms: _290  and  _293
REMARK  120  A    between atoms: _293  and  _294
REMARK  121  A    between atoms: _297  and  _299
REMARK  122  A    between atoms: _299  and  _300
REMARK  123  A    between atoms: _299  and  _302
REMARK  124  A    between atoms: _302  and  _303
REMARK  125  A    between atoms: _305  and  _307
REMARK  126  A    between atoms: _307  and  _308
REMARK  127  A    between atoms: _307  and  _310
REMARK  128  A    between atoms: _310  and  _311
REMARK  129  A    between atoms: _321  and  _323
REMARK  130  A    between atoms: _323  and  _324
REMARK  131  A    between atoms: _326  and  _328
REMARK  132  A    between atoms: _328  and  _329
REMARK  133  A    between atoms: _328  and  _331
REMARK  134  A    between atoms: _331  and  _332
REMARK  135  A    between atoms: _335  and  _337
REMARK  136  A    between atoms: _337  and  _338
REMARK  137  A    between atoms: _337  and  _340
REMARK  138  A    between atoms: _340  and  _341
REMARK  139  A    between atoms: _344  and  _346
REMARK  140  A    between atoms: _346  and  _347
REMARK  141  A    between atoms: _349  and  _351
REMARK  142  A    between atoms: _351  and  _352
REMARK  143  A    between atoms: _355  and  _357
REMARK  144  A    between atoms: _357  and  _358
REMARK  145  A    between atoms: _357  and  _360
REMARK  146  A    between atoms: _360  and  _361
REMARK  147  A    between atoms: _366  and  _367
REMARK  148  A    between atoms: _369  and  _371
REMARK  149  A    between atoms: _371  and  _372
REMARK  150  A    between atoms: _371  and  _374
REMARK  151  A    between atoms: _374  and  _375
REMARK  152  A    between atoms: _375  and  _376
REMARK  153  A    between atoms: _379  and  _381
REMARK  154  A    between atoms: _381  and  _382
REMARK  155  A    between atoms: _381  and  _384
REMARK  156  A    between atoms: _384  and  _385
REMARK  157  A    between atoms: _388  and  _390
REMARK  158  A    between atoms: _390  and  _391
REMARK  159  A    between atoms: _394  and  _396
REMARK  160  A    between atoms: _396  and  _397
REMARK  161  A    between atoms: _396  and  _399
REMARK  162  A    between atoms: _399  and  _400
REMARK  163  A    between atoms: _400  and  _401
REMARK  164  A    between atoms: _401  and  _402
REMARK  165  A    between atoms: _411  and  _413
REMARK  166  A    between atoms: _413  and  _414
REMARK  167  A    between atoms: _413  and  _416
REMARK  168  A    between atoms: _416  and  _417
REMARK  169  A    between atoms: _420  and  _422
REMARK  170  A    between atoms: _422  and  _423
REMARK  171  A    between atoms: _422  and  _425
REMARK  172  A    between atoms: _425  and  _426
REMARK  173  A    between atoms: _436  and  _438
REMARK  174  A    between atoms: _438  and  _439
REMARK  175  A    between atoms: _438  and  _441
REMARK  176  A    between atoms: _441  and  _442
REMARK  177  A    between atoms: _447  and  _448
REMARK  178  A    between atoms: _450  and  _452
REMARK  179  A    between atoms: _452  and  _453
REMARK  180  A    between atoms: _452  and  _455
REMARK  181  A    between atoms: _455  and  _456
REMARK  182  A    between atoms: _461  and  _462
REMARK  183  A    between atoms: _464  and  _466
REMARK  184  A    between atoms: _466  and  _467
REMARK  185  A    between atoms: _466  and  _469
REMARK  186  A    between atoms: _469  and  _470
REMARK  187  A    between atoms: _470  and  _471
REMARK  188  A    between atoms: _471  and  _472
REMARK  189  A    between atoms: _472  and  _473
REMARK  190  A    between atoms: _477  and  _479
REMARK  191  A    between atoms: _479  and  _480
REMARK  192  A    between atoms: _479  and  _482
REMARK  193  A    between atoms: _482  and  _483
REMARK  194  A    between atoms: _486  and  _488
REMARK  195  A    between atoms: _488  and  _489
REMARK  196  A    between atoms: _488  and  _491
REMARK  197  A    between atoms: _494  and  _496
REMARK  198  A    between atoms: _496  and  _497
REMARK  199  A    between atoms: _496  and  _499
REMARK  200  A    between atoms: _499  and  _500
REMARK  201  A    between atoms: _503  and  _505
REMARK  202  A    between atoms: _505  and  _506
REMARK  203  A    between atoms: _505  and  _508
REMARK  204  A    between atoms: _508  and  _509
REMARK  205  A    between atoms: _511  and  _513
REMARK  206  A    between atoms: _513  and  _514
REMARK  207  A    between atoms: _516  and  _518
REMARK  208  A    between atoms: _518  and  _519
REMARK  209  A    between atoms: _518  and  _521
REMARK  210  A    between atoms: _521  and  _522
REMARK  211  A    between atoms: _525  and  _527
REMARK  212  A    between atoms: _527  and  _528
REMARK  213  A    between atoms: _527  and  _530
REMARK  214  A    between atoms: _530  and  _531
REMARK  215  A    between atoms: _534  and  _536
REMARK  216  A    between atoms: _536  and  _537
REMARK  217  A    between atoms: _536  and  _539
REMARK  218  A    between atoms: _539  and  _540
REMARK  219  A    between atoms: _545  and  _547
REMARK  220  A    between atoms: _547  and  _548
REMARK  221  A    between atoms: _547  and  _550
REMARK  222  A    between atoms: _550  and  _551
REMARK  223  A    between atoms: _554  and  _556
REMARK  224  A    between atoms: _556  and  _557
REMARK  225  A    between atoms: _556  and  _559
REMARK  226  A    between atoms: _559  and  _560
REMARK  227  A    between atoms: _560  and  _561
REMARK  228  A    between atoms: _561  and  _562
REMARK  229  A    between atoms: _571  and  _573
REMARK  230  A    between atoms: _573  and  _574
REMARK  231  A    between atoms: _573  and  _576
REMARK  232  A    between atoms: _576  and  _577
REMARK  233  A    between atoms: _580  and  _582
REMARK  234  A    between atoms: _582  and  _583
REMARK  235  A    between atoms: _585  and  _587
REMARK  236  A    between atoms: _587  and  _588
REMARK  237  A    between atoms: _587  and  _590
REMARK  238  A    between atoms: _590  and  _591
REMARK  239  A    between atoms: _591  and  _592
REMARK  240  A    between atoms: _592  and  _593
REMARK  241  A    between atoms: _602  and  _604
REMARK  242  A    between atoms: _604  and  _605
REMARK  243  A    between atoms: _604  and  _607
REMARK  244  A    between atoms: _607  and  _608
REMARK  245  A    between atoms: _608  and  _609
REMARK  246  A    between atoms: _609  and  _610
REMARK  247  A    between atoms: _610  and  _611
REMARK  248  A    between atoms: _615  and  _617
REMARK  249  A    between atoms: _617  and  _618
REMARK  250  A    between atoms: _617  and  _620
REMARK  251  A    between atoms: _620  and  _621
REMARK  252  A    between atoms: _627  and  _629
REMARK  253  A    between atoms: _629  and  _630
REMARK  254  A    between atoms: _633  and  _635
REMARK  255  A    between atoms: _635  and  _636
REMARK  256  A    between atoms: _635  and  _638
REMARK  257  A    between atoms: _638  and  _639
REMARK  258  A    between atoms: _642  and  _644
REMARK  259  A    between atoms: _644  and  _645
REMARK  260  A    between atoms: _644  and  _647
REMARK  261  A    between atoms: _647  and  _648
REMARK  262  A    between atoms: _650  and  _652
REMARK  263  A    between atoms: _652  and  _653
REMARK  264  A    between atoms: _652  and  _655
REMARK  265  A    between atoms: _655  and  _656
REMARK  266  A    between atoms: _656  and  _657
REMARK  267  A    between atoms: _662  and  _664
REMARK  268  A    between atoms: _664  and  _665
REMARK  269  A    between atoms: _664  and  _667
REMARK  270  A    between atoms: _667  and  _668
REMARK  271  A    between atoms: _670  and  _672
REMARK  272  A    between atoms: _672  and  _673
REMARK  273  A    between atoms: _672  and  _675
REMARK  274  A    between atoms: _675  and  _676
REMARK  275  A    between atoms: _679  and  _681
REMARK  276  A    between atoms: _681  and  _682
REMARK  277  A    between atoms: _684  and  _686
REMARK  278  A    between atoms: _686  and  _687
REMARK  279  A    between atoms: _686  and  _689
REMARK  280  A    between atoms: _689  and  _690
REMARK  281  A    between atoms: _693  and  _695
REMARK  282  A    between atoms: _695  and  _696
REMARK  283  A    between atoms: _695  and  _698
REMARK  284  A    between atoms: _701  and  _703
REMARK  285  A    between atoms: _703  and  _704
REMARK  286  A    between atoms: _706  and  _708
REMARK  287  A    between atoms: _708  and  _709
REMARK  288  A    between atoms: _712  and  _714
REMARK  289  A    between atoms: _714  and  _715
REMARK  290  A    between atoms: _714  and  _717
REMARK  291  A    between atoms: _720  and  _722
REMARK  292  A    between atoms: _722  and  _723
REMARK  293  A    between atoms: _722  and  _725
REMARK  294  A    between atoms: _725  and  _726
REMARK  295  A    between atoms: _726  and  _727
REMARK  296  A    between atoms: _729  and  _731
REMARK  297  A    between atoms: _731  and  _732
REMARK  298  A    between atoms: _731  and  _734
REMARK  299  A    between atoms: _734  and  _735
REMARK  300  A    between atoms: _735  and  _736
REMARK                            x       y       z     vdW  Elec       q    Type
REMARK                         _______ _______ _______ _____ _____    ______ ____
ROOT
ATOM      1  O   HOH     1      41.061  -3.941  18.769  0.00  0.00    +0.000 OA
ENDROOT
TORSDOF 0
REMARK  Name = ../refined-set-2016/4gid/4gid_pocket.pdb
REMARK  300 active torsions:
REMARK  status: ('A' for Active; 'I' for Inactive)
REMARK    1  A    between atoms: _1  and  _3
REMARK    2  A    between atoms: _3  and  _4
REMARK    3  A    between atoms: _6  and  _8
REMARK    4  A    between atoms: _8  and  _9
REMARK    5  A    between atoms: _8  and  _11
REMARK    6  A    between atoms: _11  and  _12
REMARK    7  A    between atoms: _12  and  _13
REMARK    8  A    between atoms: _13  and  _14
REMARK    9  A    between atoms: _14  and  _15
REMARK   10  A    between atoms: _19  and  _21
REMARK   11  A    between atoms: _21  and  _22
REMARK   12  A    between atoms: _21  and  _24
REMARK   13  A    between atoms: _24  and  _25
REMARK   14  A    between atoms: _27  and  _29
REMARK   15  A    between atoms: _29  and  _30
REMARK   16  A    between atoms: _32  and  _34
REMARK   17  A    between atoms: _34  and  _35
REMARK   18  A    between atoms: _34  and  _37
REMARK   19  A    between atoms: _37  and  _38
REMARK   20  A    between atoms: _38  and  _39
REMARK   21  A    between atoms: _44  and  _46
REMARK   22  A    between atoms: _46  and  _47
REMARK   23  A    between atoms: _49  and  _51
REMARK   24  A    between atoms: _51  and  _52
REMARK   25  A    between atoms: _51  and  _54
REMARK   26  A    between atoms: _54  and  _55
REMARK   27  A    between atoms: _60  and  _61
REMARK   28  A    between atoms: _63  and  _65
REMARK   29  A    between atoms: _65  and  _66
REMARK   30  A    between atoms: _65  and  _68
REMARK   31  A    between atoms: _68  and  _69
REMARK   32  A    between atoms: _74  and  _75
REMARK   33  A    between atoms: _77  and  _79
REMARK   34  A    between atoms: _79  and  _80
REMARK   35  A    between atoms: _79  and  _82
REMARK   36  A    between atoms: _82  and  _83
REMARK   37  A    between atoms: _86  and  _88
REMARK   38  A    between atoms: _88  and  _89
REMARK   39  A    between atoms: _88  and  _91
REMARK   40  A    between atoms: _94  and  _96
REMARK   41  A    between atoms: _96  and  _97
REMARK   42  A    between atoms: _96  and  _99
REMARK   43  A    between atoms: _99  and  _100
REMARK   44  A    between atoms: _103  and  _105
REMARK   45  A    between atoms: _105  and  _106
REMARK   46  A    between atoms: _105  and  _108
REMARK   47  A    between atoms: _108  and  _109
REMARK   48  A    between atoms: _112  and  _114
REMARK   49  A    between atoms: _114  and  _115
REMARK   50  A    between atoms: _117  and  _119
REMARK   51  A    between atoms: _119  and  _120
REMARK   52  A    between atoms: _119  and  _122
REMARK   53  A    between atoms: _122  and  _123
REMARK   54  A    between atoms: _125  and  _127
REMARK   55  A    between atoms: _127  and  _128
REMARK   56  A    between atoms: _127  and  _130
REMARK   57  A    between atoms: _130  and  _131
REMARK   58  A    between atoms: _133  and  _135
REMARK   59  A    between atoms: _135  and  _136
REMARK   60  A    between atoms: _135  and  _138
REMARK   61  A    between atoms: _138  and  _139
REMARK   62  A    between atoms: _144  and  _146
REMARK   63  A    between atoms: _146  and  _147
REMARK   64  A    between atoms: _146  and  _149
REMARK   65  A    between atoms: _149  and  _150
REMARK   66  A    between atoms: _155  and  _156
REMARK   67  A    between atoms: _158  and  _160
REMARK   68  A    between atoms: _160  and  _161
REMARK   69  A    between atoms: _160  and  _163
REMARK   70  A    between atoms: _167  and  _168
REMARK   71  A    between atoms: _173  and  _175
REMARK   72  A    between atoms: _175  and  _176
REMARK   73  A    between atoms: _175  and  _178
REMARK   74  A    between atoms: _178  and  _179
REMARK   75  A    between atoms: _184  and  _185
REMARK   76  A    between atoms: _187  and  _189
REMARK   77  A    between atoms: _189  and  _190
REMARK   78  A    between atoms: _189  and  _192
REMARK   79  A    between atoms: _192  and  _193
REMARK   80  A    between atoms: _196  and  _198
REMARK   81  A    between atoms: _198  and  _199
REMARK   82  A    between atoms: _198  and  _201
REMARK   83  A    between atoms: _201  and  _202
REMARK   84  A    between atoms: _202  and  _203
REMARK   85  A    between atoms: _208  and  _210
REMARK   86  A    between atoms: _210  and  _211
REMARK   87  A    between atoms: _213  and  _215
REMARK   88  A    between atoms: _215  and  _216
REMARK   89  A    between atoms: _215  and  _218
REMARK   90  A    between atoms: _218  and  _219
REMARK   91  A    between atoms: _219  and  _220
REMARK   92  A    between atoms: _220  and  _221
REMARK   93  A    between atoms: _221  and  _222
REMARK   94  A    between atoms: _226  and  _228
REMARK   95  A    between atoms: _228  and  _229
REMARK   96  A    between atoms: _228  and  _231
REMARK   97  A    between atoms: _231  and  _232
REMARK   98  A    between atoms: _242  and  _244
REMARK   99  A    between atoms: _244  and  _245
REMARK  100  A    between atoms: _244  and  _247
REMARK  101  A    between atoms: _247  and  _248
REMARK  102  A    between atoms: _251  and  _253
REMARK  103  A    between atoms: _253  and  _254
REMARK  104  A    between atoms: _253  and  _256
REMARK  105  A    between atoms: _256  and  _257
REMARK  106  A    between atoms: _257  and  _258
REMARK  107  A    between atoms: _258  and  _259
REMARK  108  A    between atoms: _259  and  _260
REMARK  109  A    between atoms: _264  and  _266
REMARK  110  A    between atoms: _266  and  _267
REMARK  111  A    between atoms: _266  and  _269
REMARK  112  A    between atoms: _269  and  _270
REMARK  113  A    between atoms: _276  and  _278
REMARK  114  A    between atoms: _278  and  _279
REMARK  115  A    between atoms: _278  and  _281
REMARK  116  A    between atoms: _281  and  _282
REMARK  117  A    between atoms: _288  and  _290
REMARK  118  A    between atoms: _290  and  _291
REMARK  119  A    between atoms: _290  and  _293
REMARK  120  A    between atoms: _293  and  _294
REMARK  121  A    between atoms: _297  and  _299
REMARK  122  A    between atoms: _299  and  _300
REMARK  123  A    between atoms: _299  and  _302
REMARK  124  A    between atoms: _302  and  _303
REMARK  125  A    between atoms: _305  and  _307
REMARK  126  A    between atoms: _307  and  _308
REMARK  127  A    between atoms: _307  and  _310
REMARK  128  A    between atoms: _310  and  _311
REMARK  129  A    between atoms: _321  and  _323
REMARK  130  A    between atoms: _323  and  _324
REMARK  131  A    between atoms: _326  and  _328
REMARK  132  A    between atoms: _328  and  _329
REMARK  133  A    between atoms: _328  and  _331
REMARK  134  A    between atoms: _331  and  _332
REMARK  135  A    between atoms: _335  and  _337
REMARK  136  A    between atoms: _337  and  _338
REMARK  137  A    between atoms: _337  and  _340
REMARK  138  A    between atoms: _340  and  _341
REMARK  139  A    between atoms: _344  and  _346
REMARK  140  A    between atoms: _346  and  _347
REMARK  141  A    between atoms: _349  and  _351
REMARK  142  A    between atoms: _351  and  _352
REMARK  143  A    between atoms: _355  and  _357
REMARK  144  A    between atoms: _357  and  _358
REMARK  145  A    between atoms: _357  and  _360
REMARK  146  A    between atoms: _360  and  _361
REMARK  147  A    between atoms: _366  and  _367
REMARK  148  A    between atoms: _369  and  _371
REMARK  149  A    between atoms: _371  and  _372
REMARK  150  A    between atoms: _371  and  _374
REMARK  151  A    between atoms: _374  and  _375
REMARK  152  A    between atoms: _375  and  _376
REMARK  153  A    between atoms: _379  and  _381
REMARK  154  A    between atoms: _381  and  _382
REMARK  155  A    between atoms: _381  and  _384
REMARK  156  A    between atoms: _384  and  _385
REMARK  157  A    between atoms: _388  and  _390
REMARK  158  A    between atoms: _390  and  _391
REMARK  159  A    between atoms: _394  and  _396
REMARK  160  A    between atoms: _396  and  _397
REMARK  161  A    between atoms: _396  and  _399
REMARK  162  A    between atoms: _399  and  _400
REMARK  163  A    between atoms: _400  and  _401
REMARK  164  A    between atoms: _401  and  _402
REMARK  165  A    between atoms: _411  and  _413
REMARK  166  A    between atoms: _413  and  _414
REMARK  167  A    between atoms: _413  and  _416
REMARK  168  A    between atoms: _416  and  _417
REMARK  169  A    between atoms: _420  and  _422
REMARK  170  A    between atoms: _422  and  _423
REMARK  171  A    between atoms: _422  and  _425
REMARK  172  A    between atoms: _425  and  _426
REMARK  173  A    between atoms: _436  and  _438
REMARK  174  A    between atoms: _438  and  _439
REMARK  175  A    between atoms: _438  and  _441
REMARK  176  A    between atoms: _441  and  _442
REMARK  177  A    between atoms: _447  and  _448
REMARK  178  A    between atoms: _450  and  _452
REMARK  179  A    between atoms: _452  and  _453
REMARK  180  A    between atoms: _452  and  _455
REMARK  181  A    between atoms: _455  and  _456
REMARK  182  A    between atoms: _461  and  _462
REMARK  183  A    between atoms: _464  and  _466
REMARK  184  A    between atoms: _466  and  _467
REMARK  185  A    between atoms: _466  and  _469
REMARK  186  A    between atoms: _469  and  _470
REMARK  187  A    between atoms: _470  and  _471
REMARK  188  A    between atoms: _471  and  _472
REMARK  189  A    between atoms: _472  and  _473
REMARK  190  A    between atoms: _477  and  _479
REMARK  191  A    between atoms: _479  and  _480
REMARK  192  A    between atoms: _479  and  _482
REMARK  193  A    between atoms: _482  and  _483
REMARK  194  A    between atoms: _486  and  _488
REMARK  195  A    between atoms: _488  and  _489
REMARK  196  A    between atoms: _488  and  _491
REMARK  197  A    between atoms: _494  and  _496
REMARK  198  A    between atoms: _496  and  _497
REMARK  199  A    between atoms: _496  and  _499
REMARK  200  A    between atoms: _499  and  _500
REMARK  201  A    between atoms: _503  and  _505
REMARK  202  A    between atoms: _505  and  _506
REMARK  203  A    between atoms: _505  and  _508
REMARK  204  A    between atoms: _508  and  _509
REMARK  205  A    between atoms: _511  and  _513
REMARK  206  A    between atoms: _513  and  _514
REMARK  207  A    between atoms: _516  and  _518
REMARK  208  A    between atoms: _518  and  _519
REMARK  209  A    between atoms: _518  and  _521
REMARK  210  A    between atoms: _521  and  _522
REMARK  211  A    between atoms: _525  and  _527
REMARK  212  A    between atoms: _527  and  _528
REMARK  213  A    between atoms: _527  and  _530
REMARK  214  A    between atoms: _530  and  _531
REMARK  215  A    between atoms: _534  and  _536
REMARK  216  A    between atoms: _536  and  _537
REMARK  217  A    between atoms: _536  and  _539
REMARK  218  A    between atoms: _539  and  _540
REMARK  219  A    between atoms: _545  and  _547
REMARK  220  A    between atoms: _547  and  _548
REMARK  221  A    between atoms: _547  and  _550
REMARK  222  A    between atoms: _550  and  _551
REMARK  223  A    between atoms: _554  and  _556
REMARK  224  A    between atoms: _556  and  _557
REMARK  225  A    between atoms: _556  and  _559
REMARK  226  A    between atoms: _559  and  _560
REMARK  227  A    between atoms: _560  and  _561
REMARK  228  A    between atoms: _561  and  _562
REMARK  229  A    between atoms: _571  and  _573
REMARK  230  A    between atoms: _573  and  _574
REMARK  231  A    between atoms: _573  and  _576
REMARK  232  A    between atoms: _576  and  _577
REMARK  233  A    between atoms: _580  and  _582
REMARK  234  A    between atoms: _582  and  _583
REMARK  235  A    between atoms: _585  and  _587
REMARK  236  A    between atoms: _587  and  _588
REMARK  237  A    between atoms: _587  and  _590
REMARK  238  A    between atoms: _590  and  _591
REMARK  239  A    between atoms: _591  and  _592
REMARK  240  A    between atoms: _592  and  _593
REMARK  241  A    between atoms: _602  and  _604
REMARK  242  A    between atoms: _604  and  _605
REMARK  243  A    between atoms: _604  and  _607
REMARK  244  A    between atoms: _607  and  _608
REMARK  245  A    between atoms: _608  and  _609
REMARK  246  A    between atoms: _609  and  _610
REMARK  247  A    between atoms: _610  and  _611
REMARK  248  A    between atoms: _615  and  _617
REMARK  249  A    between atoms: _617  and  _618
REMARK  250  A    between atoms: _617  and  _620
REMARK  251  A    between atoms: _620  and  _621
REMARK  252  A    between atoms: _627  and  _629
REMARK  253  A    between atoms: _629  and  _630
REMARK  254  A    between atoms: _633  and  _635
REMARK  255  A    between atoms: _635  and  _636
REMARK  256  A    between atoms: _635  and  _638
REMARK  257  A    between atoms: _638  and  _639
REMARK  258  A    between atoms: _642  and  _644
REMARK  259  A    between atoms: _644  and  _645
REMARK  260  A    between atoms: _644  and  _647
REMARK  261  A    between atoms: _647  and  _648
REMARK  262  A    between atoms: _650  and  _652
REMARK  263  A    between atoms: _652  and  _653
REMARK  264  A    between atoms: _652  and  _655
REMARK  265  A    between atoms: _655  and  _656
REMARK  266  A    between atoms: _656  and  _657
REMARK  267  A    between atoms: _662  and  _664
REMARK  268  A    between atoms: _664  and  _665
REMARK  269  A    between atoms: _664  and  _667
REMARK  270  A    between atoms: _667  and  _668
REMARK  271  A    between atoms: _670  and  _672
REMARK  272  A    between atoms: _672  and  _673
REMARK  273  A    between atoms: _672  and  _675
REMARK  274  A    between atoms: _675  and  _676
REMARK  275  A    between atoms: _679  and  _681
REMARK  276  A    between atoms: _681  and  _682
REMARK  277  A    between atoms: _684  and  _686
REMARK  278  A    between atoms: _686  and  _687
REMARK  279  A    between atoms: _686  and  _689
REMARK  280  A    between atoms: _689  and  _690
REMARK  281  A    between atoms: _693  and  _695
REMARK  282  A    between atoms: _695  and  _696
REMARK  283  A    between atoms: _695  and  _698
REMARK  284  A    between atoms: _701  and  _703
REMARK  285  A    between atoms: _703  and  _704
REMARK  286  A    between atoms: _706  and  _708
REMARK  287  A    between atoms: _708  and  _709
REMARK  288  A    between atoms: _712  and  _714
REMARK  289  A    between atoms: _714  and  _715
REMARK  290  A    between atoms: _714  and  _717
REMARK  291  A    between atoms: _720  and  _722
REMARK  292  A    between atoms: _722  and  _723
REMARK  293  A    between atoms: _722  and  _725
REMARK  294  A    between atoms: _725  and  _726
REMARK  295  A    between atoms: _726  and  _727
REMARK  296  A    between atoms: _729  and  _731
REMARK  297  A    between atoms: _731  and  _732
REMARK  298  A    between atoms: _731  and  _734
REMARK  299  A    between atoms: _734  and  _735
REMARK  300  A    between atoms: _735  and  _736
REMARK                            x       y       z     vdW  Elec       q    Type
REMARK                         _______ _______ _______ _____ _____    ______ ____
ROOT
ATOM      1  O   HOH     1      47.404  -7.486  17.141  0.00  0.00    +0.000 OA
ENDROOT
TORSDOF 0
REMARK  Name = ../refined-set-2016/4gid/4gid_pocket.pdb
REMARK  300 active torsions:
REMARK  status: ('A' for Active; 'I' for Inactive)
REMARK    1  A    between atoms: _1  and  _3
REMARK    2  A    between atoms: _3  and  _4
REMARK    3  A    between atoms: _6  and  _8
REMARK    4  A    between atoms: _8  and  _9
REMARK    5  A    between atoms: _8  and  _11
REMARK    6  A    between atoms: _11  and  _12
REMARK    7  A    between atoms: _12  and  _13
REMARK    8  A    between atoms: _13  and  _14
REMARK    9  A    between atoms: _14  and  _15
REMARK   10  A    between atoms: _19  and  _21
REMARK   11  A    between atoms: _21  and  _22
REMARK   12  A    between atoms: _21  and  _24
REMARK   13  A    between atoms: _24  and  _25
REMARK   14  A    between atoms: _27  and  _29
REMARK   15  A    between atoms: _29  and  _30
REMARK   16  A    between atoms: _32  and  _34
REMARK   17  A    between atoms: _34  and  _35
REMARK   18  A    between atoms: _34  and  _37
REMARK   19  A    between atoms: _37  and  _38
REMARK   20  A    between atoms: _38  and  _39
REMARK   21  A    between atoms: _44  and  _46
REMARK   22  A    between atoms: _46  and  _47
REMARK   23  A    between atoms: _49  and  _51
REMARK   24  A    between atoms: _51  and  _52
REMARK   25  A    between atoms: _51  and  _54
REMARK   26  A    between atoms: _54  and  _55
REMARK   27  A    between atoms: _60  and  _61
REMARK   28  A    between atoms: _63  and  _65
REMARK   29  A    between atoms: _65  and  _66
REMARK   30  A    between atoms: _65  and  _68
REMARK   31  A    between atoms: _68  and  _69
REMARK   32  A    between atoms: _74  and  _75
REMARK   33  A    between atoms: _77  and  _79
REMARK   34  A    between atoms: _79  and  _80
REMARK   35  A    between atoms: _79  and  _82
REMARK   36  A    between atoms: _82  and  _83
REMARK   37  A    between atoms: _86  and  _88
REMARK   38  A    between atoms: _88  and  _89
REMARK   39  A    between atoms: _88  and  _91
REMARK   40  A    between atoms: _94  and  _96
REMARK   41  A    between atoms: _96  and  _97
REMARK   42  A    between atoms: _96  and  _99
REMARK   43  A    between atoms: _99  and  _100
REMARK   44  A    between atoms: _103  and  _105
REMARK   45  A    between atoms: _105  and  _106
REMARK   46  A    between atoms: _105  and  _108
REMARK   47  A    between atoms: _108  and  _109
REMARK   48  A    between atoms: _112  and  _114
REMARK   49  A    between atoms: _114  and  _115
REMARK   50  A    between atoms: _117  and  _119
REMARK   51  A    between atoms: _119  and  _120
REMARK   52  A    between atoms: _119  and  _122
REMARK   53  A    between atoms: _122  and  _123
REMARK   54  A    between atoms: _125  and  _127
REMARK   55  A    between atoms: _127  and  _128
REMARK   56  A    between atoms: _127  and  _130
REMARK   57  A    between atoms: _130  and  _131
REMARK   58  A    between atoms: _133  and  _135
REMARK   59  A    between atoms: _135  and  _136
REMARK   60  A    between atoms: _135  and  _138
REMARK   61  A    between atoms: _138  and  _139
REMARK   62  A    between atoms: _144  and  _146
REMARK   63  A    between atoms: _146  and  _147
REMARK   64  A    between atoms: _146  and  _149
REMARK   65  A    between atoms: _149  and  _150
REMARK   66  A    between atoms: _155  and  _156
REMARK   67  A    between atoms: _158  and  _160
REMARK   68  A    between atoms: _160  and  _161
REMARK   69  A    between atoms: _160  and  _163
REMARK   70  A    between atoms: _167  and  _168
REMARK   71  A    between atoms: _173  and  _175
REMARK   72  A    between atoms: _175  and  _176
REMARK   73  A    between atoms: _175  and  _178
REMARK   74  A    between atoms: _178  and  _179
REMARK   75  A    between atoms: _184  and  _185
REMARK   76  A    between atoms: _187  and  _189
REMARK   77  A    between atoms: _189  and  _190
REMARK   78  A    between atoms: _189  and  _192
REMARK   79  A    between atoms: _192  and  _193
REMARK   80  A    between atoms: _196  and  _198
REMARK   81  A    between atoms: _198  and  _199
REMARK   82  A    between atoms: _198  and  _201
REMARK   83  A    between atoms: _201  and  _202
REMARK   84  A    between atoms: _202  and  _203
REMARK   85  A    between atoms: _208  and  _210
REMARK   86  A    between atoms: _210  and  _211
REMARK   87  A    between atoms: _213  and  _215
REMARK   88  A    between atoms: _215  and  _216
REMARK   89  A    between atoms: _215  and  _218
REMARK   90  A    between atoms: _218  and  _219
REMARK   91  A    between atoms: _219  and  _220
REMARK   92  A    between atoms: _220  and  _221
REMARK   93  A    between atoms: _221  and  _222
REMARK   94  A    between atoms: _226  and  _228
REMARK   95  A    between atoms: _228  and  _229
REMARK   96  A    between atoms: _228  and  _231
REMARK   97  A    between atoms: _231  and  _232
REMARK   98  A    between atoms: _242  and  _244
REMARK   99  A    between atoms: _244  and  _245
REMARK  100  A    between atoms: _244  and  _247
REMARK  101  A    between atoms: _247  and  _248
REMARK  102  A    between atoms: _251  and  _253
REMARK  103  A    between atoms: _253  and  _254
REMARK  104  A    between atoms: _253  and  _256
REMARK  105  A    between atoms: _256  and  _257
REMARK  106  A    between atoms: _257  and  _258
REMARK  107  A    between atoms: _258  and  _259
REMARK  108  A    between atoms: _259  and  _260
REMARK  109  A    between atoms: _264  and  _266
REMARK  110  A    between atoms: _266  and  _267
REMARK  111  A    between atoms: _266  and  _269
REMARK  112  A    between atoms: _269  and  _270
REMARK  113  A    between atoms: _276  and  _278
REMARK  114  A    between atoms: _278  and  _279
REMARK  115  A    between atoms: _278  and  _281
REMARK  116  A    between atoms: _281  and  _282
REMARK  117  A    between atoms: _288  and  _290
REMARK  118  A    between atoms: _290  and  _291
REMARK  119  A    between atoms: _290  and  _293
REMARK  120  A    between atoms: _293  and  _294
REMARK  121  A    between atoms: _297  and  _299
REMARK  122  A    between atoms: _299  and  _300
REMARK  123  A    between atoms: _299  and  _302
REMARK  124  A    between atoms: _302  and  _303
REMARK  125  A    between atoms: _305  and  _307
REMARK  126  A    between atoms: _307  and  _308
REMARK  127  A    between atoms: _307  and  _310
REMARK  128  A    between atoms: _310  and  _311
REMARK  129  A    between atoms: _321  and  _323
REMARK  130  A    between atoms: _323  and  _324
REMARK  131  A    between atoms: _326  and  _328
REMARK  132  A    between atoms: _328  and  _329
REMARK  133  A    between atoms: _328  and  _331
REMARK  134  A    between atoms: _331  and  _332
REMARK  135  A    between atoms: _335  and  _337
REMARK  136  A    between atoms: _337  and  _338
REMARK  137  A    between atoms: _337  and  _340
REMARK  138  A    between atoms: _340  and  _341
REMARK  139  A    between atoms: _344  and  _346
REMARK  140  A    between atoms: _346  and  _347
REMARK  141  A    between atoms: _349  and  _351
REMARK  142  A    between atoms: _351  and  _352
REMARK  143  A    between atoms: _355  and  _357
REMARK  144  A    between atoms: _357  and  _358
REMARK  145  A    between atoms: _357  and  _360
REMARK  146  A    between atoms: _360  and  _361
REMARK  147  A    between atoms: _366  and  _367
REMARK  148  A    between atoms: _369  and  _371
REMARK  149  A    between atoms: _371  and  _372
REMARK  150  A    between atoms: _371  and  _374
REMARK  151  A    between atoms: _374  and  _375
REMARK  152  A    between atoms: _375  and  _376
REMARK  153  A    between atoms: _379  and  _381
REMARK  154  A    between atoms: _381  and  _382
REMARK  155  A    between atoms: _381  and  _384
REMARK  156  A    between atoms: _384  and  _385
REMARK  157  A    between atoms: _388  and  _390
REMARK  158  A    between atoms: _390  and  _391
REMARK  159  A    between atoms: _394  and  _396
REMARK  160  A    between atoms: _396  and  _397
REMARK  161  A    between atoms: _396  and  _399
REMARK  162  A    between atoms: _399  and  _400
REMARK  163  A    between atoms: _400  and  _401
REMARK  164  A    between atoms: _401  and  _402
REMARK  165  A    between atoms: _411  and  _413
REMARK  166  A    between atoms: _413  and  _414
REMARK  167  A    between atoms: _413  and  _416
REMARK  168  A    between atoms: _416  and  _417
REMARK  169  A    between atoms: _420  and  _422
REMARK  170  A    between atoms: _422  and  _423
REMARK  171  A    between atoms: _422  and  _425
REMARK  172  A    between atoms: _425  and  _426
REMARK  173  A    between atoms: _436  and  _438
REMARK  174  A    between atoms: _438  and  _439
REMARK  175  A    between atoms: _438  and  _441
REMARK  176  A    between atoms: _441  and  _442
REMARK  177  A    between atoms: _447  and  _448
REMARK  178  A    between atoms: _450  and  _452
REMARK  179  A    between atoms: _452  and  _453
REMARK  180  A    between atoms: _452  and  _455
REMARK  181  A    between atoms: _455  and  _456
REMARK  182  A    between atoms: _461  and  _462
REMARK  183  A    between atoms: _464  and  _466
REMARK  184  A    between atoms: _466  and  _467
REMARK  185  A    between atoms: _466  and  _469
REMARK  186  A    between atoms: _469  and  _470
REMARK  187  A    between atoms: _470  and  _471
REMARK  188  A    between atoms: _471  and  _472
REMARK  189  A    between atoms: _472  and  _473
REMARK  190  A    between atoms: _477  and  _479
REMARK  191  A    between atoms: _479  and  _480
REMARK  192  A    between atoms: _479  and  _482
REMARK  193  A    between atoms: _482  and  _483
REMARK  194  A    between atoms: _486  and  _488
REMARK  195  A    between atoms: _488  and  _489
REMARK  196  A    between atoms: _488  and  _491
REMARK  197  A    between atoms: _494  and  _496
REMARK  198  A    between atoms: _496  and  _497
REMARK  199  A    between atoms: _496  and  _499
REMARK  200  A    between atoms: _499  and  _500
REMARK  201  A    between atoms: _503  and  _505
REMARK  202  A    between atoms: _505  and  _506
REMARK  203  A    between atoms: _505  and  _508
REMARK  204  A    between atoms: _508  and  _509
REMARK  205  A    between atoms: _511  and  _513
REMARK  206  A    between atoms: _513  and  _514
REMARK  207  A    between atoms: _516  and  _518
REMARK  208  A    between atoms: _518  and  _519
REMARK  209  A    between atoms: _518  and  _521
REMARK  210  A    between atoms: _521  and  _522
REMARK  211  A    between atoms: _525  and  _527
REMARK  212  A    between atoms: _527  and  _528
REMARK  213  A    between atoms: _527  and  _530
REMARK  214  A    between atoms: _530  and  _531
REMARK  215  A    between atoms: _534  and  _536
REMARK  216  A    between atoms: _536  and  _537
REMARK  217  A    between atoms: _536  and  _539
REMARK  218  A    between atoms: _539  and  _540
REMARK  219  A    between atoms: _545  and  _547
REMARK  220  A    between atoms: _547  and  _548
REMARK  221  A    between atoms: _547  and  _550
REMARK  222  A    between atoms: _550  and  _551
REMARK  223  A    between atoms: _554  and  _556
REMARK  224  A    between atoms: _556  and  _557
REMARK  225  A    between atoms: _556  and  _559
REMARK  226  A    between atoms: _559  and  _560
REMARK  227  A    between atoms: _560  and  _561
REMARK  228  A    between atoms: _561  and  _562
REMARK  229  A    between atoms: _571  and  _573
REMARK  230  A    between atoms: _573  and  _574
REMARK  231  A    between atoms: _573  and  _576
REMARK  232  A    between atoms: _576  and  _577
REMARK  233  A    between atoms: _580  and  _582
REMARK  234  A    between atoms: _582  and  _583
REMARK  235  A    between atoms: _585  and  _587
REMARK  236  A    between atoms: _587  and  _588
REMARK  237  A    between atoms: _587  and  _590
REMARK  238  A    between atoms: _590  and  _591
REMARK  239  A    between atoms: _591  and  _592
REMARK  240  A    between atoms: _592  and  _593
REMARK  241  A    between atoms: _602  and  _604
REMARK  242  A    between atoms: _604  and  _605
REMARK  243  A    between atoms: _604  and  _607
REMARK  244  A    between atoms: _607  and  _608
REMARK  245  A    between atoms: _608  and  _609
REMARK  246  A    between atoms: _609  and  _610
REMARK  247  A    between atoms: _610  and  _611
REMARK  248  A    between atoms: _615  and  _617
REMARK  249  A    between atoms: _617  and  _618
REMARK  250  A    between atoms: _617  and  _620
REMARK  251  A    between atoms: _620  and  _621
REMARK  252  A    between atoms: _627  and  _629
REMARK  253  A    between atoms: _629  and  _630
REMARK  254  A    between atoms: _633  and  _635
REMARK  255  A    between atoms: _635  and  _636
REMARK  256  A    between atoms: _635  and  _638
REMARK  257  A    between atoms: _638  and  _639
REMARK  258  A    between atoms: _642  and  _644
REMARK  259  A    between atoms: _644  and  _645
REMARK  260  A    between atoms: _644  and  _647
REMARK  261  A    between atoms: _647  and  _648
REMARK  262  A    between atoms: _650  and  _652
REMARK  263  A    between atoms: _652  and  _653
REMARK  264  A    between atoms: _652  and  _655
REMARK  265  A    between atoms: _655  and  _656
REMARK  266  A    between atoms: _656  and  _657
REMARK  267  A    between atoms: _662  and  _664
REMARK  268  A    between atoms: _664  and  _665
REMARK  269  A    between atoms: _664  and  _667
REMARK  270  A    between atoms: _667  and  _668
REMARK  271  A    between atoms: _670  and  _672
REMARK  272  A    between atoms: _672  and  _673
REMARK  273  A    between atoms: _672  and  _675
REMARK  274  A    between atoms: _675  and  _676
REMARK  275  A    between atoms: _679  and  _681
REMARK  276  A    between atoms: _681  and  _682
REMARK  277  A    between atoms: _684  and  _686
REMARK  278  A    between atoms: _686  and  _687
REMARK  279  A    between atoms: _686  and  _689
REMARK  280  A    between atoms: _689  and  _690
REMARK  281  A    between atoms: _693  and  _695
REMARK  282  A    between atoms: _695  and  _696
REMARK  283  A    between atoms: _695  and  _698
REMARK  284  A    between atoms: _701  and  _703
REMARK  285  A    between atoms: _703  and  _704
REMARK  286  A    between atoms: _706  and  _708
REMARK  287  A    between atoms: _708  and  _709
REMARK  288  A    between atoms: _712  and  _714
REMARK  289  A    between atoms: _714  and  _715
REMARK  290  A    between atoms: _714  and  _717
REMARK  291  A    between atoms: _720  and  _722
REMARK  292  A    between atoms: _722  and  _723
REMARK  293  A    between atoms: _722  and  _725
REMARK  294  A    between atoms: _725  and  _726
REMARK  295  A    between atoms: _726  and  _727
REMARK  296  A    between atoms: _729  and  _731
REMARK  297  A    between atoms: _731  and  _732
REMARK  298  A    between atoms: _731  and  _734
REMARK  299  A    between atoms: _734  and  _735
REMARK  300  A    between atoms: _735  and  _736
REMARK                            x       y       z     vdW  Elec       q    Type
REMARK                         _______ _______ _______ _____ _____    ______ ____
ROOT
ATOM      1  O   HOH     1      31.737  -1.966  15.696  0.00  0.00    +0.000 OA
ENDROOT
TORSDOF 0
REMARK  Name = ../refined-set-2016/4gid/4gid_pocket.pdb
REMARK  300 active torsions:
REMARK  status: ('A' for Active; 'I' for Inactive)
REMARK    1  A    between atoms: _1  and  _3
REMARK    2  A    between atoms: _3  and  _4
REMARK    3  A    between atoms: _6  and  _8
REMARK    4  A    between atoms: _8  and  _9
REMARK    5  A    between atoms: _8  and  _11
REMARK    6  A    between atoms: _11  and  _12
REMARK    7  A    between atoms: _12  and  _13
REMARK    8  A    between atoms: _13  and  _14
REMARK    9  A    between atoms: _14  and  _15
REMARK   10  A    between atoms: _19  and  _21
REMARK   11  A    between atoms: _21  and  _22
REMARK   12  A    between atoms: _21  and  _24
REMARK   13  A    between atoms: _24  and  _25
REMARK   14  A    between atoms: _27  and  _29
REMARK   15  A    between atoms: _29  and  _30
REMARK   16  A    between atoms: _32  and  _34
REMARK   17  A    between atoms: _34  and  _35
REMARK   18  A    between atoms: _34  and  _37
REMARK   19  A    between atoms: _37  and  _38
REMARK   20  A    between atoms: _38  and  _39
REMARK   21  A    between atoms: _44  and  _46
REMARK   22  A    between atoms: _46  and  _47
REMARK   23  A    between atoms: _49  and  _51
REMARK   24  A    between atoms: _51  and  _52
REMARK   25  A    between atoms: _51  and  _54
REMARK   26  A    between atoms: _54  and  _55
REMARK   27  A    between atoms: _60  and  _61
REMARK   28  A    between atoms: _63  and  _65
REMARK   29  A    between atoms: _65  and  _66
REMARK   30  A    between atoms: _65  and  _68
REMARK   31  A    between atoms: _68  and  _69
REMARK   32  A    between atoms: _74  and  _75
REMARK   33  A    between atoms: _77  and  _79
REMARK   34  A    between atoms: _79  and  _80
REMARK   35  A    between atoms: _79  and  _82
REMARK   36  A    between atoms: _82  and  _83
REMARK   37  A    between atoms: _86  and  _88
REMARK   38  A    between atoms: _88  and  _89
REMARK   39  A    between atoms: _88  and  _91
REMARK   40  A    between atoms: _94  and  _96
REMARK   41  A    between atoms: _96  and  _97
REMARK   42  A    between atoms: _96  and  _99
REMARK   43  A    between atoms: _99  and  _100
REMARK   44  A    between atoms: _103  and  _105
REMARK   45  A    between atoms: _105  and  _106
REMARK   46  A    between atoms: _105  and  _108
REMARK   47  A    between atoms: _108  and  _109
REMARK   48  A    between atoms: _112  and  _114
REMARK   49  A    between atoms: _114  and  _115
REMARK   50  A    between atoms: _117  and  _119
REMARK   51  A    between atoms: _119  and  _120
REMARK   52  A    between atoms: _119  and  _122
REMARK   53  A    between atoms: _122  and  _123
REMARK   54  A    between atoms: _125  and  _127
REMARK   55  A    between atoms: _127  and  _128
REMARK   56  A    between atoms: _127  and  _130
REMARK   57  A    between atoms: _130  and  _131
REMARK   58  A    between atoms: _133  and  _135
REMARK   59  A    between atoms: _135  and  _136
REMARK   60  A    between atoms: _135  and  _138
REMARK   61  A    between atoms: _138  and  _139
REMARK   62  A    between atoms: _144  and  _146
REMARK   63  A    between atoms: _146  and  _147
REMARK   64  A    between atoms: _146  and  _149
REMARK   65  A    between atoms: _149  and  _150
REMARK   66  A    between atoms: _155  and  _156
REMARK   67  A    between atoms: _158  and  _160
REMARK   68  A    between atoms: _160  and  _161
REMARK   69  A    between atoms: _160  and  _163
REMARK   70  A    between atoms: _167  and  _168
REMARK   71  A    between atoms: _173  and  _175
REMARK   72  A    between atoms: _175  and  _176
REMARK   73  A    between atoms: _175  and  _178
REMARK   74  A    between atoms: _178  and  _179
REMARK   75  A    between atoms: _184  and  _185
REMARK   76  A    between atoms: _187  and  _189
REMARK   77  A    between atoms: _189  and  _190
REMARK   78  A    between atoms: _189  and  _192
REMARK   79  A    between atoms: _192  and  _193
REMARK   80  A    between atoms: _196  and  _198
REMARK   81  A    between atoms: _198  and  _199
REMARK   82  A    between atoms: _198  and  _201
REMARK   83  A    between atoms: _201  and  _202
REMARK   84  A    between atoms: _202  and  _203
REMARK   85  A    between atoms: _208  and  _210
REMARK   86  A    between atoms: _210  and  _211
REMARK   87  A    between atoms: _213  and  _215
REMARK   88  A    between atoms: _215  and  _216
REMARK   89  A    between atoms: _215  and  _218
REMARK   90  A    between atoms: _218  and  _219
REMARK   91  A    between atoms: _219  and  _220
REMARK   92  A    between atoms: _220  and  _221
REMARK   93  A    between atoms: _221  and  _222
REMARK   94  A    between atoms: _226  and  _228
REMARK   95  A    between atoms: _228  and  _229
REMARK   96  A    between atoms: _228  and  _231
REMARK   97  A    between atoms: _231  and  _232
REMARK   98  A    between atoms: _242  and  _244
REMARK   99  A    between atoms: _244  and  _245
REMARK  100  A    between atoms: _244  and  _247
REMARK  101  A    between atoms: _247  and  _248
REMARK  102  A    between atoms: _251  and  _253
REMARK  103  A    between atoms: _253  and  _254
REMARK  104  A    between atoms: _253  and  _256
REMARK  105  A    between atoms: _256  and  _257
REMARK  106  A    between atoms: _257  and  _258
REMARK  107  A    between atoms: _258  and  _259
REMARK  108  A    between atoms: _259  and  _260
REMARK  109  A    between atoms: _264  and  _266
REMARK  110  A    between atoms: _266  and  _267
REMARK  111  A    between atoms: _266  and  _269
REMARK  112  A    between atoms: _269  and  _270
REMARK  113  A    between atoms: _276  and  _278
REMARK  114  A    between atoms: _278  and  _279
REMARK  115  A    between atoms: _278  and  _281
REMARK  116  A    between atoms: _281  and  _282
REMARK  117  A    between atoms: _288  and  _290
REMARK  118  A    between atoms: _290  and  _291
REMARK  119  A    between atoms: _290  and  _293
REMARK  120  A    between atoms: _293  and  _294
REMARK  121  A    between atoms: _297  and  _299
REMARK  122  A    between atoms: _299  and  _300
REMARK  123  A    between atoms: _299  and  _302
REMARK  124  A    between atoms: _302  and  _303
REMARK  125  A    between atoms: _305  and  _307
REMARK  126  A    between atoms: _307  and  _308
REMARK  127  A    between atoms: _307  and  _310
REMARK  128  A    between atoms: _310  and  _311
REMARK  129  A    between atoms: _321  and  _323
REMARK  130  A    between atoms: _323  and  _324
REMARK  131  A    between atoms: _326  and  _328
REMARK  132  A    between atoms: _328  and  _329
REMARK  133  A    between atoms: _328  and  _331
REMARK  134  A    between atoms: _331  and  _332
REMARK  135  A    between atoms: _335  and  _337
REMARK  136  A    between atoms: _337  and  _338
REMARK  137  A    between atoms: _337  and  _340
REMARK  138  A    between atoms: _340  and  _341
REMARK  139  A    between atoms: _344  and  _346
REMARK  140  A    between atoms: _346  and  _347
REMARK  141  A    between atoms: _349  and  _351
REMARK  142  A    between atoms: _351  and  _352
REMARK  143  A    between atoms: _355  and  _357
REMARK  144  A    between atoms: _357  and  _358
REMARK  145  A    between atoms: _357  and  _360
REMARK  146  A    between atoms: _360  and  _361
REMARK  147  A    between atoms: _366  and  _367
REMARK  148  A    between atoms: _369  and  _371
REMARK  149  A    between atoms: _371  and  _372
REMARK  150  A    between atoms: _371  and  _374
REMARK  151  A    between atoms: _374  and  _375
REMARK  152  A    between atoms: _375  and  _376
REMARK  153  A    between atoms: _379  and  _381
REMARK  154  A    between atoms: _381  and  _382
REMARK  155  A    between atoms: _381  and  _384
REMARK  156  A    between atoms: _384  and  _385
REMARK  157  A    between atoms: _388  and  _390
REMARK  158  A    between atoms: _390  and  _391
REMARK  159  A    between atoms: _394  and  _396
REMARK  160  A    between atoms: _396  and  _397
REMARK  161  A    between atoms: _396  and  _399
REMARK  162  A    between atoms: _399  and  _400
REMARK  163  A    between atoms: _400  and  _401
REMARK  164  A    between atoms: _401  and  _402
REMARK  165  A    between atoms: _411  and  _413
REMARK  166  A    between atoms: _413  and  _414
REMARK  167  A    between atoms: _413  and  _416
REMARK  168  A    between atoms: _416  and  _417
REMARK  169  A    between atoms: _420  and  _422
REMARK  170  A    between atoms: _422  and  _423
REMARK  171  A    between atoms: _422  and  _425
REMARK  172  A    between atoms: _425  and  _426
REMARK  173  A    between atoms: _436  and  _438
REMARK  174  A    between atoms: _438  and  _439
REMARK  175  A    between atoms: _438  and  _441
REMARK  176  A    between atoms: _441  and  _442
REMARK  177  A    between atoms: _447  and  _448
REMARK  178  A    between atoms: _450  and  _452
REMARK  179  A    between atoms: _452  and  _453
REMARK  180  A    between atoms: _452  and  _455
REMARK  181  A    between atoms: _455  and  _456
REMARK  182  A    between atoms: _461  and  _462
REMARK  183  A    between atoms: _464  and  _466
REMARK  184  A    between atoms: _466  and  _467
REMARK  185  A    between atoms: _466  and  _469
REMARK  186  A    between atoms: _469  and  _470
REMARK  187  A    between atoms: _470  and  _471
REMARK  188  A    between atoms: _471  and  _472
REMARK  189  A    between atoms: _472  and  _473
REMARK  190  A    between atoms: _477  and  _479
REMARK  191  A    between atoms: _479  and  _480
REMARK  192  A    between atoms: _479  and  _482
REMARK  193  A    between atoms: _482  and  _483
REMARK  194  A    between atoms: _486  and  _488
REMARK  195  A    between atoms: _488  and  _489
REMARK  196  A    between atoms: _488  and  _491
REMARK  197  A    between atoms: _494  and  _496
REMARK  198  A    between atoms: _496  and  _497
REMARK  199  A    between atoms: _496  and  _499
REMARK  200  A    between atoms: _499  and  _500
REMARK  201  A    between atoms: _503  and  _505
REMARK  202  A    between atoms: _505  and  _506
REMARK  203  A    between atoms: _505  and  _508
REMARK  204  A    between atoms: _508  and  _509
REMARK  205  A    between atoms: _511  and  _513
REMARK  206  A    between atoms: _513  and  _514
REMARK  207  A    between atoms: _516  and  _518
REMARK  208  A    between atoms: _518  and  _519
REMARK  209  A    between atoms: _518  and  _521
REMARK  210  A    between atoms: _521  and  _522
REMARK  211  A    between atoms: _525  and  _527
REMARK  212  A    between atoms: _527  and  _528
REMARK  213  A    between atoms: _527  and  _530
REMARK  214  A    between atoms: _530  and  _531
REMARK  215  A    between atoms: _534  and  _536
REMARK  216  A    between atoms: _536  and  _537
REMARK  217  A    between atoms: _536  and  _539
REMARK  218  A    between atoms: _539  and  _540
REMARK  219  A    between atoms: _545  and  _547
REMARK  220  A    between atoms: _547  and  _548
REMARK  221  A    between atoms: _547  and  _550
REMARK  222  A    between atoms: _550  and  _551
REMARK  223  A    between atoms: _554  and  _556
REMARK  224  A    between atoms: _556  and  _557
REMARK  225  A    between atoms: _556  and  _559
REMARK  226  A    between atoms: _559  and  _560
REMARK  227  A    between atoms: _560  and  _561
REMARK  228  A    between atoms: _561  and  _562
REMARK  229  A    between atoms: _571  and  _573
REMARK  230  A    between atoms: _573  and  _574
REMARK  231  A    between atoms: _573  and  _576
REMARK  232  A    between atoms: _576  and  _577
REMARK  233  A    between atoms: _580  and  _582
REMARK  234  A    between atoms: _582  and  _583
REMARK  235  A    between atoms: _585  and  _587
REMARK  236  A    between atoms: _587  and  _588
REMARK  237  A    between atoms: _587  and  _590
REMARK  238  A    between atoms: _590  and  _591
REMARK  239  A    between atoms: _591  and  _592
REMARK  240  A    between atoms: _592  and  _593
REMARK  241  A    between atoms: _602  and  _604
REMARK  242  A    between atoms: _604  and  _605
REMARK  243  A    between atoms: _604  and  _607
REMARK  244  A    between atoms: _607  and  _608
REMARK  245  A    between atoms: _608  and  _609
REMARK  246  A    between atoms: _609  and  _610
REMARK  247  A    between atoms: _610  and  _611
REMARK  248  A    between atoms: _615  and  _617
REMARK  249  A    between atoms: _617  and  _618
REMARK  250  A    between atoms: _617  and  _620
REMARK  251  A    between atoms: _620  and  _621
REMARK  252  A    between atoms: _627  and  _629
REMARK  253  A    between atoms: _629  and  _630
REMARK  254  A    between atoms: _633  and  _635
REMARK  255  A    between atoms: _635  and  _636
REMARK  256  A    between atoms: _635  and  _638
REMARK  257  A    between atoms: _638  and  _639
REMARK  258  A    between atoms: _642  and  _644
REMARK  259  A    between atoms: _644  and  _645
REMARK  260  A    between atoms: _644  and  _647
REMARK  261  A    between atoms: _647  and  _648
REMARK  262  A    between atoms: _650  and  _652
REMARK  263  A    between atoms: _652  and  _653
REMARK  264  A    between atoms: _652  and  _655
REMARK  265  A    between atoms: _655  and  _656
REMARK  266  A    between atoms: _656  and  _657
REMARK  267  A    between atoms: _662  and  _664
REMARK  268  A    between atoms: _664  and  _665
REMARK  269  A    between atoms: _664  and  _667
REMARK  270  A    between atoms: _667  and  _668
REMARK  271  A    between atoms: _670  and  _672
REMARK  272  A    between atoms: _672  and  _673
REMARK  273  A    between atoms: _672  and  _675
REMARK  274  A    between atoms: _675  and  _676
REMARK  275  A    between atoms: _679  and  _681
REMARK  276  A    between atoms: _681  and  _682
REMARK  277  A    between atoms: _684  and  _686
REMARK  278  A    between atoms: _686  and  _687
REMARK  279  A    between atoms: _686  and  _689
REMARK  280  A    between atoms: _689  and  _690
REMARK  281  A    between atoms: _693  and  _695
REMARK  282  A    between atoms: _695  and  _696
REMARK  283  A    between atoms: _695  and  _698
REMARK  284  A    between atoms: _701  and  _703
REMARK  285  A    between atoms: _703  and  _704
REMARK  286  A    between atoms: _706  and  _708
REMARK  287  A    between atoms: _708  and  _709
REMARK  288  A    between atoms: _712  and  _714
REMARK  289  A    between atoms: _714  and  _715
REMARK  290  A    between atoms: _714  and  _717
REMARK  291  A    between atoms: _720  and  _722
REMARK  292  A    between atoms: _722  and  _723
REMARK  293  A    between atoms: _722  and  _725
REMARK  294  A    between atoms: _725  and  _726
REMARK  295  A    between atoms: _726  and  _727
REMARK  296  A    between atoms: _729  and  _731
REMARK  297  A    between atoms: _731  and  _732
REMARK  298  A    between atoms: _731  and  _734
REMARK  299  A    between atoms: _734  and  _735
REMARK  300  A    between atoms: _735  and  _736
REMARK                            x       y       z     vdW  Elec       q    Type
REMARK                         _______ _______ _______ _____ _____    ______ ____
ROOT
ATOM      1  O   HOH     1      35.309  -5.556  16.290  0.00  0.00    +0.000 OA
ENDROOT
TORSDOF 0
REMARK  Name = ../refined-set-2016/4gid/4gid_pocket.pdb
REMARK  300 active torsions:
REMARK  status: ('A' for Active; 'I' for Inactive)
REMARK    1  A    between atoms: _1  and  _3
REMARK    2  A    between atoms: _3  and  _4
REMARK    3  A    between atoms: _6  and  _8
REMARK    4  A    between atoms: _8  and  _9
REMARK    5  A    between atoms: _8  and  _11
REMARK    6  A    between atoms: _11  and  _12
REMARK    7  A    between atoms: _12  and  _13
REMARK    8  A    between atoms: _13  and  _14
REMARK    9  A    between atoms: _14  and  _15
REMARK   10  A    between atoms: _19  and  _21
REMARK   11  A    between atoms: _21  and  _22
REMARK   12  A    between atoms: _21  and  _24
REMARK   13  A    between atoms: _24  and  _25
REMARK   14  A    between atoms: _27  and  _29
REMARK   15  A    between atoms: _29  and  _30
REMARK   16  A    between atoms: _32  and  _34
REMARK   17  A    between atoms: _34  and  _35
REMARK   18  A    between atoms: _34  and  _37
REMARK   19  A    between atoms: _37  and  _38
REMARK   20  A    between atoms: _38  and  _39
REMARK   21  A    between atoms: _44  and  _46
REMARK   22  A    between atoms: _46  and  _47
REMARK   23  A    between atoms: _49  and  _51
REMARK   24  A    between atoms: _51  and  _52
REMARK   25  A    between atoms: _51  and  _54
REMARK   26  A    between atoms: _54  and  _55
REMARK   27  A    between atoms: _60  and  _61
REMARK   28  A    between atoms: _63  and  _65
REMARK   29  A    between atoms: _65  and  _66
REMARK   30  A    between atoms: _65  and  _68
REMARK   31  A    between atoms: _68  and  _69
REMARK   32  A    between atoms: _74  and  _75
REMARK   33  A    between atoms: _77  and  _79
REMARK   34  A    between atoms: _79  and  _80
REMARK   35  A    between atoms: _79  and  _82
REMARK   36  A    between atoms: _82  and  _83
REMARK   37  A    between atoms: _86  and  _88
REMARK   38  A    between atoms: _88  and  _89
REMARK   39  A    between atoms: _88  and  _91
REMARK   40  A    between atoms: _94  and  _96
REMARK   41  A    between atoms: _96  and  _97
REMARK   42  A    between atoms: _96  and  _99
REMARK   43  A    between atoms: _99  and  _100
REMARK   44  A    between atoms: _103  and  _105
REMARK   45  A    between atoms: _105  and  _106
REMARK   46  A    between atoms: _105  and  _108
REMARK   47  A    between atoms: _108  and  _109
REMARK   48  A    between atoms: _112  and  _114
REMARK   49  A    between atoms: _114  and  _115
REMARK   50  A    between atoms: _117  and  _119
REMARK   51  A    between atoms: _119  and  _120
REMARK   52  A    between atoms: _119  and  _122
REMARK   53  A    between atoms: _122  and  _123
REMARK   54  A    between atoms: _125  and  _127
REMARK   55  A    between atoms: _127  and  _128
REMARK   56  A    between atoms: _127  and  _130
REMARK   57  A    between atoms: _130  and  _131
REMARK   58  A    between atoms: _133  and  _135
REMARK   59  A    between atoms: _135  and  _136
REMARK   60  A    between atoms: _135  and  _138
REMARK   61  A    between atoms: _138  and  _139
REMARK   62  A    between atoms: _144  and  _146
REMARK   63  A    between atoms: _146  and  _147
REMARK   64  A    between atoms: _146  and  _149
REMARK   65  A    between atoms: _149  and  _150
REMARK   66  A    between atoms: _155  and  _156
REMARK   67  A    between atoms: _158  and  _160
REMARK   68  A    between atoms: _160  and  _161
REMARK   69  A    between atoms: _160  and  _163
REMARK   70  A    between atoms: _167  and  _168
REMARK   71  A    between atoms: _173  and  _175
REMARK   72  A    between atoms: _175  and  _176
REMARK   73  A    between atoms: _175  and  _178
REMARK   74  A    between atoms: _178  and  _179
REMARK   75  A    between atoms: _184  and  _185
REMARK   76  A    between atoms: _187  and  _189
REMARK   77  A    between atoms: _189  and  _190
REMARK   78  A    between atoms: _189  and  _192
REMARK   79  A    between atoms: _192  and  _193
REMARK   80  A    between atoms: _196  and  _198
REMARK   81  A    between atoms: _198  and  _199
REMARK   82  A    between atoms: _198  and  _201
REMARK   83  A    between atoms: _201  and  _202
REMARK   84  A    between atoms: _202  and  _203
REMARK   85  A    between atoms: _208  and  _210
REMARK   86  A    between atoms: _210  and  _211
REMARK   87  A    between atoms: _213  and  _215
REMARK   88  A    between atoms: _215  and  _216
REMARK   89  A    between atoms: _215  and  _218
REMARK   90  A    between atoms: _218  and  _219
REMARK   91  A    between atoms: _219  and  _220
REMARK   92  A    between atoms: _220  and  _221
REMARK   93  A    between atoms: _221  and  _222
REMARK   94  A    between atoms: _226  and  _228
REMARK   95  A    between atoms: _228  and  _229
REMARK   96  A    between atoms: _228  and  _231
REMARK   97  A    between atoms: _231  and  _232
REMARK   98  A    between atoms: _242  and  _244
REMARK   99  A    between atoms: _244  and  _245
REMARK  100  A    between atoms: _244  and  _247
REMARK  101  A    between atoms: _247  and  _248
REMARK  102  A    between atoms: _251  and  _253
REMARK  103  A    between atoms: _253  and  _254
REMARK  104  A    between atoms: _253  and  _256
REMARK  105  A    between atoms: _256  and  _257
REMARK  106  A    between atoms: _257  and  _258
REMARK  107  A    between atoms: _258  and  _259
REMARK  108  A    between atoms: _259  and  _260
REMARK  109  A    between atoms: _264  and  _266
REMARK  110  A    between atoms: _266  and  _267
REMARK  111  A    between atoms: _266  and  _269
REMARK  112  A    between atoms: _269  and  _270
REMARK  113  A    between atoms: _276  and  _278
REMARK  114  A    between atoms: _278  and  _279
REMARK  115  A    between atoms: _278  and  _281
REMARK  116  A    between atoms: _281  and  _282
REMARK  117  A    between atoms: _288  and  _290
REMARK  118  A    between atoms: _290  and  _291
REMARK  119  A    between atoms: _290  and  _293
REMARK  120  A    between atoms: _293  and  _294
REMARK  121  A    between atoms: _297  and  _299
REMARK  122  A    between atoms: _299  and  _300
REMARK  123  A    between atoms: _299  and  _302
REMARK  124  A    between atoms: _302  and  _303
REMARK  125  A    between atoms: _305  and  _307
REMARK  126  A    between atoms: _307  and  _308
REMARK  127  A    between atoms: _307  and  _310
REMARK  128  A    between atoms: _310  and  _311
REMARK  129  A    between atoms: _321  and  _323
REMARK  130  A    between atoms: _323  and  _324
REMARK  131  A    between atoms: _326  and  _328
REMARK  132  A    between atoms: _328  and  _329
REMARK  133  A    between atoms: _328  and  _331
REMARK  134  A    between atoms: _331  and  _332
REMARK  135  A    between atoms: _335  and  _337
REMARK  136  A    between atoms: _337  and  _338
REMARK  137  A    between atoms: _337  and  _340
REMARK  138  A    between atoms: _340  and  _341
REMARK  139  A    between atoms: _344  and  _346
REMARK  140  A    between atoms: _346  and  _347
REMARK  141  A    between atoms: _349  and  _351
REMARK  142  A    between atoms: _351  and  _352
REMARK  143  A    between atoms: _355  and  _357
REMARK  144  A    between atoms: _357  and  _358
REMARK  145  A    between atoms: _357  and  _360
REMARK  146  A    between atoms: _360  and  _361
REMARK  147  A    between atoms: _366  and  _367
REMARK  148  A    between atoms: _369  and  _371
REMARK  149  A    between atoms: _371  and  _372
REMARK  150  A    between atoms: _371  and  _374
REMARK  151  A    between atoms: _374  and  _375
REMARK  152  A    between atoms: _375  and  _376
REMARK  153  A    between atoms: _379  and  _381
REMARK  154  A    between atoms: _381  and  _382
REMARK  155  A    between atoms: _381  and  _384
REMARK  156  A    between atoms: _384  and  _385
REMARK  157  A    between atoms: _388  and  _390
REMARK  158  A    between atoms: _390  and  _391
REMARK  159  A    between atoms: _394  and  _396
REMARK  160  A    between atoms: _396  and  _397
REMARK  161  A    between atoms: _396  and  _399
REMARK  162  A    between atoms: _399  and  _400
REMARK  163  A    between atoms: _400  and  _401
REMARK  164  A    between atoms: _401  and  _402
REMARK  165  A    between atoms: _411  and  _413
REMARK  166  A    between atoms: _413  and  _414
REMARK  167  A    between atoms: _413  and  _416
REMARK  168  A    between atoms: _416  and  _417
REMARK  169  A    between atoms: _420  and  _422
REMARK  170  A    between atoms: _422  and  _423
REMARK  171  A    between atoms: _422  and  _425
REMARK  172  A    between atoms: _425  and  _426
REMARK  173  A    between atoms: _436  and  _438
REMARK  174  A    between atoms: _438  and  _439
REMARK  175  A    between atoms: _438  and  _441
REMARK  176  A    between atoms: _441  and  _442
REMARK  177  A    between atoms: _447  and  _448
REMARK  178  A    between atoms: _450  and  _452
REMARK  179  A    between atoms: _452  and  _453
REMARK  180  A    between atoms: _452  and  _455
REMARK  181  A    between atoms: _455  and  _456
REMARK  182  A    between atoms: _461  and  _462
REMARK  183  A    between atoms: _464  and  _466
REMARK  184  A    between atoms: _466  and  _467
REMARK  185  A    between atoms: _466  and  _469
REMARK  186  A    between atoms: _469  and  _470
REMARK  187  A    between atoms: _470  and  _471
REMARK  188  A    between atoms: _471  and  _472
REMARK  189  A    between atoms: _472  and  _473
REMARK  190  A    between atoms: _477  and  _479
REMARK  191  A    between atoms: _479  and  _480
REMARK  192  A    between atoms: _479  and  _482
REMARK  193  A    between atoms: _482  and  _483
REMARK  194  A    between atoms: _486  and  _488
REMARK  195  A    between atoms: _488  and  _489
REMARK  196  A    between atoms: _488  and  _491
REMARK  197  A    between atoms: _494  and  _496
REMARK  198  A    between atoms: _496  and  _497
REMARK  199  A    between atoms: _496  and  _499
REMARK  200  A    between atoms: _499  and  _500
REMARK  201  A    between atoms: _503  and  _505
REMARK  202  A    between atoms: _505  and  _506
REMARK  203  A    between atoms: _505  and  _508
REMARK  204  A    between atoms: _508  and  _509
REMARK  205  A    between atoms: _511  and  _513
REMARK  206  A    between atoms: _513  and  _514
REMARK  207  A    between atoms: _516  and  _518
REMARK  208  A    between atoms: _518  and  _519
REMARK  209  A    between atoms: _518  and  _521
REMARK  210  A    between atoms: _521  and  _522
REMARK  211  A    between atoms: _525  and  _527
REMARK  212  A    between atoms: _527  and  _528
REMARK  213  A    between atoms: _527  and  _530
REMARK  214  A    between atoms: _530  and  _531
REMARK  215  A    between atoms: _534  and  _536
REMARK  216  A    between atoms: _536  and  _537
REMARK  217  A    between atoms: _536  and  _539
REMARK  218  A    between atoms: _539  and  _540
REMARK  219  A    between atoms: _545  and  _547
REMARK  220  A    between atoms: _547  and  _548
REMARK  221  A    between atoms: _547  and  _550
REMARK  222  A    between atoms: _550  and  _551
REMARK  223  A    between atoms: _554  and  _556
REMARK  224  A    between atoms: _556  and  _557
REMARK  225  A    between atoms: _556  and  _559
REMARK  226  A    between atoms: _559  and  _560
REMARK  227  A    between atoms: _560  and  _561
REMARK  228  A    between atoms: _561  and  _562
REMARK  229  A    between atoms: _571  and  _573
REMARK  230  A    between atoms: _573  and  _574
REMARK  231  A    between atoms: _573  and  _576
REMARK  232  A    between atoms: _576  and  _577
REMARK  233  A    between atoms: _580  and  _582
REMARK  234  A    between atoms: _582  and  _583
REMARK  235  A    between atoms: _585  and  _587
REMARK  236  A    between atoms: _587  and  _588
REMARK  237  A    between atoms: _587  and  _590
REMARK  238  A    between atoms: _590  and  _591
REMARK  239  A    between atoms: _591  and  _592
REMARK  240  A    between atoms: _592  and  _593
REMARK  241  A    between atoms: _602  and  _604
REMARK  242  A    between atoms: _604  and  _605
REMARK  243  A    between atoms: _604  and  _607
REMARK  244  A    between atoms: _607  and  _608
REMARK  245  A    between atoms: _608  and  _609
REMARK  246  A    between atoms: _609  and  _610
REMARK  247  A    between atoms: _610  and  _611
REMARK  248  A    between atoms: _615  and  _617
REMARK  249  A    between atoms: _617  and  _618
REMARK  250  A    between atoms: _617  and  _620
REMARK  251  A    between atoms: _620  and  _621
REMARK  252  A    between atoms: _627  and  _629
REMARK  253  A    between atoms: _629  and  _630
REMARK  254  A    between atoms: _633  and  _635
REMARK  255  A    between atoms: _635  and  _636
REMARK  256  A    between atoms: _635  and  _638
REMARK  257  A    between atoms: _638  and  _639
REMARK  258  A    between atoms: _642  and  _644
REMARK  259  A    between atoms: _644  and  _645
REMARK  260  A    between atoms: _644  and  _647
REMARK  261  A    between atoms: _647  and  _648
REMARK  262  A    between atoms: _650  and  _652
REMARK  263  A    between atoms: _652  and  _653
REMARK  264  A    between atoms: _652  and  _655
REMARK  265  A    between atoms: _655  and  _656
REMARK  266  A    between atoms: _656  and  _657
REMARK  267  A    between atoms: _662  and  _664
REMARK  268  A    between atoms: _664  and  _665
REMARK  269  A    between atoms: _664  and  _667
REMARK  270  A    between atoms: _667  and  _668
REMARK  271  A    between atoms: _670  and  _672
REMARK  272  A    between atoms: _672  and  _673
REMARK  273  A    between atoms: _672  and  _675
REMARK  274  A    between atoms: _675  and  _676
REMARK  275  A    between atoms: _679  and  _681
REMARK  276  A    between atoms: _681  and  _682
REMARK  277  A    between atoms: _684  and  _686
REMARK  278  A    between atoms: _686  and  _687
REMARK  279  A    between atoms: _686  and  _689
REMARK  280  A    between atoms: _689  and  _690
REMARK  281  A    between atoms: _693  and  _695
REMARK  282  A    between atoms: _695  and  _696
REMARK  283  A    between atoms: _695  and  _698
REMARK  284  A    between atoms: _701  and  _703
REMARK  285  A    between atoms: _703  and  _704
REMARK  286  A    between atoms: _706  and  _708
REMARK  287  A    between atoms: _708  and  _709
REMARK  288  A    between atoms: _712  and  _714
REMARK  289  A    between atoms: _714  and  _715
REMARK  290  A    between atoms: _714  and  _717
REMARK  291  A    between atoms: _720  and  _722
REMARK  292  A    between atoms: _722  and  _723
REMARK  293  A    between atoms: _722  and  _725
REMARK  294  A    between atoms: _725  and  _726
REMARK  295  A    between atoms: _726  and  _727
REMARK  296  A    between atoms: _729  and  _731
REMARK  297  A    between atoms: _731  and  _732
REMARK  298  A    between atoms: _731  and  _734
REMARK  299  A    between atoms: _734  and  _735
REMARK  300  A    between atoms: _735  and  _736
REMARK                            x       y       z     vdW  Elec       q    Type
REMARK                         _______ _______ _______ _____ _____    ______ ____
ROOT
ATOM      1  O   HOH     1      44.812   5.641  12.074  0.00  0.00    +0.000 OA
ENDROOT
TORSDOF 0
REMARK  Name = ../refined-set-2016/4gid/4gid_pocket.pdb
REMARK  300 active torsions:
REMARK  status: ('A' for Active; 'I' for Inactive)
REMARK    1  A    between atoms: _1  and  _3
REMARK    2  A    between atoms: _3  and  _4
REMARK    3  A    between atoms: _6  and  _8
REMARK    4  A    between atoms: _8  and  _9
REMARK    5  A    between atoms: _8  and  _11
REMARK    6  A    between atoms: _11  and  _12
REMARK    7  A    between atoms: _12  and  _13
REMARK    8  A    between atoms: _13  and  _14
REMARK    9  A    between atoms: _14  and  _15
REMARK   10  A    between atoms: _19  and  _21
REMARK   11  A    between atoms: _21  and  _22
REMARK   12  A    between atoms: _21  and  _24
REMARK   13  A    between atoms: _24  and  _25
REMARK   14  A    between atoms: _27  and  _29
REMARK   15  A    between atoms: _29  and  _30
REMARK   16  A    between atoms: _32  and  _34
REMARK   17  A    between atoms: _34  and  _35
REMARK   18  A    between atoms: _34  and  _37
REMARK   19  A    between atoms: _37  and  _38
REMARK   20  A    between atoms: _38  and  _39
REMARK   21  A    between atoms: _44  and  _46
REMARK   22  A    between atoms: _46  and  _47
REMARK   23  A    between atoms: _49  and  _51
REMARK   24  A    between atoms: _51  and  _52
REMARK   25  A    between atoms: _51  and  _54
REMARK   26  A    between atoms: _54  and  _55
REMARK   27  A    between atoms: _60  and  _61
REMARK   28  A    between atoms: _63  and  _65
REMARK   29  A    between atoms: _65  and  _66
REMARK   30  A    between atoms: _65  and  _68
REMARK   31  A    between atoms: _68  and  _69
REMARK   32  A    between atoms: _74  and  _75
REMARK   33  A    between atoms: _77  and  _79
REMARK   34  A    between atoms: _79  and  _80
REMARK   35  A    between atoms: _79  and  _82
REMARK   36  A    between atoms: _82  and  _83
REMARK   37  A    between atoms: _86  and  _88
REMARK   38  A    between atoms: _88  and  _89
REMARK   39  A    between atoms: _88  and  _91
REMARK   40  A    between atoms: _94  and  _96
REMARK   41  A    between atoms: _96  and  _97
REMARK   42  A    between atoms: _96  and  _99
REMARK   43  A    between atoms: _99  and  _100
REMARK   44  A    between atoms: _103  and  _105
REMARK   45  A    between atoms: _105  and  _106
REMARK   46  A    between atoms: _105  and  _108
REMARK   47  A    between atoms: _108  and  _109
REMARK   48  A    between atoms: _112  and  _114
REMARK   49  A    between atoms: _114  and  _115
REMARK   50  A    between atoms: _117  and  _119
REMARK   51  A    between atoms: _119  and  _120
REMARK   52  A    between atoms: _119  and  _122
REMARK   53  A    between atoms: _122  and  _123
REMARK   54  A    between atoms: _125  and  _127
REMARK   55  A    between atoms: _127  and  _128
REMARK   56  A    between atoms: _127  and  _130
REMARK   57  A    between atoms: _130  and  _131
REMARK   58  A    between atoms: _133  and  _135
REMARK   59  A    between atoms: _135  and  _136
REMARK   60  A    between atoms: _135  and  _138
REMARK   61  A    between atoms: _138  and  _139
REMARK   62  A    between atoms: _144  and  _146
REMARK   63  A    between atoms: _146  and  _147
REMARK   64  A    between atoms: _146  and  _149
REMARK   65  A    between atoms: _149  and  _150
REMARK   66  A    between atoms: _155  and  _156
REMARK   67  A    between atoms: _158  and  _160
REMARK   68  A    between atoms: _160  and  _161
REMARK   69  A    between atoms: _160  and  _163
REMARK   70  A    between atoms: _167  and  _168
REMARK   71  A    between atoms: _173  and  _175
REMARK   72  A    between atoms: _175  and  _176
REMARK   73  A    between atoms: _175  and  _178
REMARK   74  A    between atoms: _178  and  _179
REMARK   75  A    between atoms: _184  and  _185
REMARK   76  A    between atoms: _187  and  _189
REMARK   77  A    between atoms: _189  and  _190
REMARK   78  A    between atoms: _189  and  _192
REMARK   79  A    between atoms: _192  and  _193
REMARK   80  A    between atoms: _196  and  _198
REMARK   81  A    between atoms: _198  and  _199
REMARK   82  A    between atoms: _198  and  _201
REMARK   83  A    between atoms: _201  and  _202
REMARK   84  A    between atoms: _202  and  _203
REMARK   85  A    between atoms: _208  and  _210
REMARK   86  A    between atoms: _210  and  _211
REMARK   87  A    between atoms: _213  and  _215
REMARK   88  A    between atoms: _215  and  _216
REMARK   89  A    between atoms: _215  and  _218
REMARK   90  A    between atoms: _218  and  _219
REMARK   91  A    between atoms: _219  and  _220
REMARK   92  A    between atoms: _220  and  _221
REMARK   93  A    between atoms: _221  and  _222
REMARK   94  A    between atoms: _226  and  _228
REMARK   95  A    between atoms: _228  and  _229
REMARK   96  A    between atoms: _228  and  _231
REMARK   97  A    between atoms: _231  and  _232
REMARK   98  A    between atoms: _242  and  _244
REMARK   99  A    between atoms: _244  and  _245
REMARK  100  A    between atoms: _244  and  _247
REMARK  101  A    between atoms: _247  and  _248
REMARK  102  A    between atoms: _251  and  _253
REMARK  103  A    between atoms: _253  and  _254
REMARK  104  A    between atoms: _253  and  _256
REMARK  105  A    between atoms: _256  and  _257
REMARK  106  A    between atoms: _257  and  _258
REMARK  107  A    between atoms: _258  and  _259
REMARK  108  A    between atoms: _259  and  _260
REMARK  109  A    between atoms: _264  and  _266
REMARK  110  A    between atoms: _266  and  _267
REMARK  111  A    between atoms: _266  and  _269
REMARK  112  A    between atoms: _269  and  _270
REMARK  113  A    between atoms: _276  and  _278
REMARK  114  A    between atoms: _278  and  _279
REMARK  115  A    between atoms: _278  and  _281
REMARK  116  A    between atoms: _281  and  _282
REMARK  117  A    between atoms: _288  and  _290
REMARK  118  A    between atoms: _290  and  _291
REMARK  119  A    between atoms: _290  and  _293
REMARK  120  A    between atoms: _293  and  _294
REMARK  121  A    between atoms: _297  and  _299
REMARK  122  A    between atoms: _299  and  _300
REMARK  123  A    between atoms: _299  and  _302
REMARK  124  A    between atoms: _302  and  _303
REMARK  125  A    between atoms: _305  and  _307
REMARK  126  A    between atoms: _307  and  _308
REMARK  127  A    between atoms: _307  and  _310
REMARK  128  A    between atoms: _310  and  _311
REMARK  129  A    between atoms: _321  and  _323
REMARK  130  A    between atoms: _323  and  _324
REMARK  131  A    between atoms: _326  and  _328
REMARK  132  A    between atoms: _328  and  _329
REMARK  133  A    between atoms: _328  and  _331
REMARK  134  A    between atoms: _331  and  _332
REMARK  135  A    between atoms: _335  and  _337
REMARK  136  A    between atoms: _337  and  _338
REMARK  137  A    between atoms: _337  and  _340
REMARK  138  A    between atoms: _340  and  _341
REMARK  139  A    between atoms: _344  and  _346
REMARK  140  A    between atoms: _346  and  _347
REMARK  141  A    between atoms: _349  and  _351
REMARK  142  A    between atoms: _351  and  _352
REMARK  143  A    between atoms: _355  and  _357
REMARK  144  A    between atoms: _357  and  _358
REMARK  145  A    between atoms: _357  and  _360
REMARK  146  A    between atoms: _360  and  _361
REMARK  147  A    between atoms: _366  and  _367
REMARK  148  A    between atoms: _369  and  _371
REMARK  149  A    between atoms: _371  and  _372
REMARK  150  A    between atoms: _371  and  _374
REMARK  151  A    between atoms: _374  and  _375
REMARK  152  A    between atoms: _375  and  _376
REMARK  153  A    between atoms: _379  and  _381
REMARK  154  A    between atoms: _381  and  _382
REMARK  155  A    between atoms: _381  and  _384
REMARK  156  A    between atoms: _384  and  _385
REMARK  157  A    between atoms: _388  and  _390
REMARK  158  A    between atoms: _390  and  _391
REMARK  159  A    between atoms: _394  and  _396
REMARK  160  A    between atoms: _396  and  _397
REMARK  161  A    between atoms: _396  and  _399
REMARK  162  A    between atoms: _399  and  _400
REMARK  163  A    between atoms: _400  and  _401
REMARK  164  A    between atoms: _401  and  _402
REMARK  165  A    between atoms: _411  and  _413
REMARK  166  A    between atoms: _413  and  _414
REMARK  167  A    between atoms: _413  and  _416
REMARK  168  A    between atoms: _416  and  _417
REMARK  169  A    between atoms: _420  and  _422
REMARK  170  A    between atoms: _422  and  _423
REMARK  171  A    between atoms: _422  and  _425
REMARK  172  A    between atoms: _425  and  _426
REMARK  173  A    between atoms: _436  and  _438
REMARK  174  A    between atoms: _438  and  _439
REMARK  175  A    between atoms: _438  and  _441
REMARK  176  A    between atoms: _441  and  _442
REMARK  177  A    between atoms: _447  and  _448
REMARK  178  A    between atoms: _450  and  _452
REMARK  179  A    between atoms: _452  and  _453
REMARK  180  A    between atoms: _452  and  _455
REMARK  181  A    between atoms: _455  and  _456
REMARK  182  A    between atoms: _461  and  _462
REMARK  183  A    between atoms: _464  and  _466
REMARK  184  A    between atoms: _466  and  _467
REMARK  185  A    between atoms: _466  and  _469
REMARK  186  A    between atoms: _469  and  _470
REMARK  187  A    between atoms: _470  and  _471
REMARK  188  A    between atoms: _471  and  _472
REMARK  189  A    between atoms: _472  and  _473
REMARK  190  A    between atoms: _477  and  _479
REMARK  191  A    between atoms: _479  and  _480
REMARK  192  A    between atoms: _479  and  _482
REMARK  193  A    between atoms: _482  and  _483
REMARK  194  A    between atoms: _486  and  _488
REMARK  195  A    between atoms: _488  and  _489
REMARK  196  A    between atoms: _488  and  _491
REMARK  197  A    between atoms: _494  and  _496
REMARK  198  A    between atoms: _496  and  _497
REMARK  199  A    between atoms: _496  and  _499
REMARK  200  A    between atoms: _499  and  _500
REMARK  201  A    between atoms: _503  and  _505
REMARK  202  A    between atoms: _505  and  _506
REMARK  203  A    between atoms: _505  and  _508
REMARK  204  A    between atoms: _508  and  _509
REMARK  205  A    between atoms: _511  and  _513
REMARK  206  A    between atoms: _513  and  _514
REMARK  207  A    between atoms: _516  and  _518
REMARK  208  A    between atoms: _518  and  _519
REMARK  209  A    between atoms: _518  and  _521
REMARK  210  A    between atoms: _521  and  _522
REMARK  211  A    between atoms: _525  and  _527
REMARK  212  A    between atoms: _527  and  _528
REMARK  213  A    between atoms: _527  and  _530
REMARK  214  A    between atoms: _530  and  _531
REMARK  215  A    between atoms: _534  and  _536
REMARK  216  A    between atoms: _536  and  _537
REMARK  217  A    between atoms: _536  and  _539
REMARK  218  A    between atoms: _539  and  _540
REMARK  219  A    between atoms: _545  and  _547
REMARK  220  A    between atoms: _547  and  _548
REMARK  221  A    between atoms: _547  and  _550
REMARK  222  A    between atoms: _550  and  _551
REMARK  223  A    between atoms: _554  and  _556
REMARK  224  A    between atoms: _556  and  _557
REMARK  225  A    between atoms: _556  and  _559
REMARK  226  A    between atoms: _559  and  _560
REMARK  227  A    between atoms: _560  and  _561
REMARK  228  A    between atoms: _561  and  _562
REMARK  229  A    between atoms: _571  and  _573
REMARK  230  A    between atoms: _573  and  _574
REMARK  231  A    between atoms: _573  and  _576
REMARK  232  A    between atoms: _576  and  _577
REMARK  233  A    between atoms: _580  and  _582
REMARK  234  A    between atoms: _582  and  _583
REMARK  235  A    between atoms: _585  and  _587
REMARK  236  A    between atoms: _587  and  _588
REMARK  237  A    between atoms: _587  and  _590
REMARK  238  A    between atoms: _590  and  _591
REMARK  239  A    between atoms: _591  and  _592
REMARK  240  A    between atoms: _592  and  _593
REMARK  241  A    between atoms: _602  and  _604
REMARK  242  A    between atoms: _604  and  _605
REMARK  243  A    between atoms: _604  and  _607
REMARK  244  A    between atoms: _607  and  _608
REMARK  245  A    between atoms: _608  and  _609
REMARK  246  A    between atoms: _609  and  _610
REMARK  247  A    between atoms: _610  and  _611
REMARK  248  A    between atoms: _615  and  _617
REMARK  249  A    between atoms: _617  and  _618
REMARK  250  A    between atoms: _617  and  _620
REMARK  251  A    between atoms: _620  and  _621
REMARK  252  A    between atoms: _627  and  _629
REMARK  253  A    between atoms: _629  and  _630
REMARK  254  A    between atoms: _633  and  _635
REMARK  255  A    between atoms: _635  and  _636
REMARK  256  A    between atoms: _635  and  _638
REMARK  257  A    between atoms: _638  and  _639
REMARK  258  A    between atoms: _642  and  _644
REMARK  259  A    between atoms: _644  and  _645
REMARK  260  A    between atoms: _644  and  _647
REMARK  261  A    between atoms: _647  and  _648
REMARK  262  A    between atoms: _650  and  _652
REMARK  263  A    between atoms: _652  and  _653
REMARK  264  A    between atoms: _652  and  _655
REMARK  265  A    between atoms: _655  and  _656
REMARK  266  A    between atoms: _656  and  _657
REMARK  267  A    between atoms: _662  and  _664
REMARK  268  A    between atoms: _664  and  _665
REMARK  269  A    between atoms: _664  and  _667
REMARK  270  A    between atoms: _667  and  _668
REMARK  271  A    between atoms: _670  and  _672
REMARK  272  A    between atoms: _672  and  _673
REMARK  273  A    between atoms: _672  and  _675
REMARK  274  A    between atoms: _675  and  _676
REMARK  275  A    between atoms: _679  and  _681
REMARK  276  A    between atoms: _681  and  _682
REMARK  277  A    between atoms: _684  and  _686
REMARK  278  A    between atoms: _686  and  _687
REMARK  279  A    between atoms: _686  and  _689
REMARK  280  A    between atoms: _689  and  _690
REMARK  281  A    between atoms: _693  and  _695
REMARK  282  A    between atoms: _695  and  _696
REMARK  283  A    between atoms: _695  and  _698
REMARK  284  A    between atoms: _701  and  _703
REMARK  285  A    between atoms: _703  and  _704
REMARK  286  A    between atoms: _706  and  _708
REMARK  287  A    between atoms: _708  and  _709
REMARK  288  A    between atoms: _712  and  _714
REMARK  289  A    between atoms: _714  and  _715
REMARK  290  A    between atoms: _714  and  _717
REMARK  291  A    between atoms: _720  and  _722
REMARK  292  A    between atoms: _722  and  _723
REMARK  293  A    between atoms: _722  and  _725
REMARK  294  A    between atoms: _725  and  _726
REMARK  295  A    between atoms: _726  and  _727
REMARK  296  A    between atoms: _729  and  _731
REMARK  297  A    between atoms: _731  and  _732
REMARK  298  A    between atoms: _731  and  _734
REMARK  299  A    between atoms: _734  and  _735
REMARK  300  A    between atoms: _735  and  _736
REMARK                            x       y       z     vdW  Elec       q    Type
REMARK                         _______ _______ _______ _____ _____    ______ ____
ROOT
ATOM      1  O   HOH     1      29.841  -0.192  10.952  0.00  0.00    +0.000 OA
ENDROOT
TORSDOF 0
REMARK  Name = ../refined-set-2016/4gid/4gid_pocket.pdb
REMARK  300 active torsions:
REMARK  status: ('A' for Active; 'I' for Inactive)
REMARK    1  A    between atoms: _1  and  _3
REMARK    2  A    between atoms: _3  and  _4
REMARK    3  A    between atoms: _6  and  _8
REMARK    4  A    between atoms: _8  and  _9
REMARK    5  A    between atoms: _8  and  _11
REMARK    6  A    between atoms: _11  and  _12
REMARK    7  A    between atoms: _12  and  _13
REMARK    8  A    between atoms: _13  and  _14
REMARK    9  A    between atoms: _14  and  _15
REMARK   10  A    between atoms: _19  and  _21
REMARK   11  A    between atoms: _21  and  _22
REMARK   12  A    between atoms: _21  and  _24
REMARK   13  A    between atoms: _24  and  _25
REMARK   14  A    between atoms: _27  and  _29
REMARK   15  A    between atoms: _29  and  _30
REMARK   16  A    between atoms: _32  and  _34
REMARK   17  A    between atoms: _34  and  _35
REMARK   18  A    between atoms: _34  and  _37
REMARK   19  A    between atoms: _37  and  _38
REMARK   20  A    between atoms: _38  and  _39
REMARK   21  A    between atoms: _44  and  _46
REMARK   22  A    between atoms: _46  and  _47
REMARK   23  A    between atoms: _49  and  _51
REMARK   24  A    between atoms: _51  and  _52
REMARK   25  A    between atoms: _51  and  _54
REMARK   26  A    between atoms: _54  and  _55
REMARK   27  A    between atoms: _60  and  _61
REMARK   28  A    between atoms: _63  and  _65
REMARK   29  A    between atoms: _65  and  _66
REMARK   30  A    between atoms: _65  and  _68
REMARK   31  A    between atoms: _68  and  _69
REMARK   32  A    between atoms: _74  and  _75
REMARK   33  A    between atoms: _77  and  _79
REMARK   34  A    between atoms: _79  and  _80
REMARK   35  A    between atoms: _79  and  _82
REMARK   36  A    between atoms: _82  and  _83
REMARK   37  A    between atoms: _86  and  _88
REMARK   38  A    between atoms: _88  and  _89
REMARK   39  A    between atoms: _88  and  _91
REMARK   40  A    between atoms: _94  and  _96
REMARK   41  A    between atoms: _96  and  _97
REMARK   42  A    between atoms: _96  and  _99
REMARK   43  A    between atoms: _99  and  _100
REMARK   44  A    between atoms: _103  and  _105
REMARK   45  A    between atoms: _105  and  _106
REMARK   46  A    between atoms: _105  and  _108
REMARK   47  A    between atoms: _108  and  _109
REMARK   48  A    between atoms: _112  and  _114
REMARK   49  A    between atoms: _114  and  _115
REMARK   50  A    between atoms: _117  and  _119
REMARK   51  A    between atoms: _119  and  _120
REMARK   52  A    between atoms: _119  and  _122
REMARK   53  A    between atoms: _122  and  _123
REMARK   54  A    between atoms: _125  and  _127
REMARK   55  A    between atoms: _127  and  _128
REMARK   56  A    between atoms: _127  and  _130
REMARK   57  A    between atoms: _130  and  _131
REMARK   58  A    between atoms: _133  and  _135
REMARK   59  A    between atoms: _135  and  _136
REMARK   60  A    between atoms: _135  and  _138
REMARK   61  A    between atoms: _138  and  _139
REMARK   62  A    between atoms: _144  and  _146
REMARK   63  A    between atoms: _146  and  _147
REMARK   64  A    between atoms: _146  and  _149
REMARK   65  A    between atoms: _149  and  _150
REMARK   66  A    between atoms: _155  and  _156
REMARK   67  A    between atoms: _158  and  _160
REMARK   68  A    between atoms: _160  and  _161
REMARK   69  A    between atoms: _160  and  _163
REMARK   70  A    between atoms: _167  and  _168
REMARK   71  A    between atoms: _173  and  _175
REMARK   72  A    between atoms: _175  and  _176
REMARK   73  A    between atoms: _175  and  _178
REMARK   74  A    between atoms: _178  and  _179
REMARK   75  A    between atoms: _184  and  _185
REMARK   76  A    between atoms: _187  and  _189
REMARK   77  A    between atoms: _189  and  _190
REMARK   78  A    between atoms: _189  and  _192
REMARK   79  A    between atoms: _192  and  _193
REMARK   80  A    between atoms: _196  and  _198
REMARK   81  A    between atoms: _198  and  _199
REMARK   82  A    between atoms: _198  and  _201
REMARK   83  A    between atoms: _201  and  _202
REMARK   84  A    between atoms: _202  and  _203
REMARK   85  A    between atoms: _208  and  _210
REMARK   86  A    between atoms: _210  and  _211
REMARK   87  A    between atoms: _213  and  _215
REMARK   88  A    between atoms: _215  and  _216
REMARK   89  A    between atoms: _215  and  _218
REMARK   90  A    between atoms: _218  and  _219
REMARK   91  A    between atoms: _219  and  _220
REMARK   92  A    between atoms: _220  and  _221
REMARK   93  A    between atoms: _221  and  _222
REMARK   94  A    between atoms: _226  and  _228
REMARK   95  A    between atoms: _228  and  _229
REMARK   96  A    between atoms: _228  and  _231
REMARK   97  A    between atoms: _231  and  _232
REMARK   98  A    between atoms: _242  and  _244
REMARK   99  A    between atoms: _244  and  _245
REMARK  100  A    between atoms: _244  and  _247
REMARK  101  A    between atoms: _247  and  _248
REMARK  102  A    between atoms: _251  and  _253
REMARK  103  A    between atoms: _253  and  _254
REMARK  104  A    between atoms: _253  and  _256
REMARK  105  A    between atoms: _256  and  _257
REMARK  106  A    between atoms: _257  and  _258
REMARK  107  A    between atoms: _258  and  _259
REMARK  108  A    between atoms: _259  and  _260
REMARK  109  A    between atoms: _264  and  _266
REMARK  110  A    between atoms: _266  and  _267
REMARK  111  A    between atoms: _266  and  _269
REMARK  112  A    between atoms: _269  and  _270
REMARK  113  A    between atoms: _276  and  _278
REMARK  114  A    between atoms: _278  and  _279
REMARK  115  A    between atoms: _278  and  _281
REMARK  116  A    between atoms: _281  and  _282
REMARK  117  A    between atoms: _288  and  _290
REMARK  118  A    between atoms: _290  and  _291
REMARK  119  A    between atoms: _290  and  _293
REMARK  120  A    between atoms: _293  and  _294
REMARK  121  A    between atoms: _297  and  _299
REMARK  122  A    between atoms: _299  and  _300
REMARK  123  A    between atoms: _299  and  _302
REMARK  124  A    between atoms: _302  and  _303
REMARK  125  A    between atoms: _305  and  _307
REMARK  126  A    between atoms: _307  and  _308
REMARK  127  A    between atoms: _307  and  _310
REMARK  128  A    between atoms: _310  and  _311
REMARK  129  A    between atoms: _321  and  _323
REMARK  130  A    between atoms: _323  and  _324
REMARK  131  A    between atoms: _326  and  _328
REMARK  132  A    between atoms: _328  and  _329
REMARK  133  A    between atoms: _328  and  _331
REMARK  134  A    between atoms: _331  and  _332
REMARK  135  A    between atoms: _335  and  _337
REMARK  136  A    between atoms: _337  and  _338
REMARK  137  A    between atoms: _337  and  _340
REMARK  138  A    between atoms: _340  and  _341
REMARK  139  A    between atoms: _344  and  _346
REMARK  140  A    between atoms: _346  and  _347
REMARK  141  A    between atoms: _349  and  _351
REMARK  142  A    between atoms: _351  and  _352
REMARK  143  A    between atoms: _355  and  _357
REMARK  144  A    between atoms: _357  and  _358
REMARK  145  A    between atoms: _357  and  _360
REMARK  146  A    between atoms: _360  and  _361
REMARK  147  A    between atoms: _366  and  _367
REMARK  148  A    between atoms: _369  and  _371
REMARK  149  A    between atoms: _371  and  _372
REMARK  150  A    between atoms: _371  and  _374
REMARK  151  A    between atoms: _374  and  _375
REMARK  152  A    between atoms: _375  and  _376
REMARK  153  A    between atoms: _379  and  _381
REMARK  154  A    between atoms: _381  and  _382
REMARK  155  A    between atoms: _381  and  _384
REMARK  156  A    between atoms: _384  and  _385
REMARK  157  A    between atoms: _388  and  _390
REMARK  158  A    between atoms: _390  and  _391
REMARK  159  A    between atoms: _394  and  _396
REMARK  160  A    between atoms: _396  and  _397
REMARK  161  A    between atoms: _396  and  _399
REMARK  162  A    between atoms: _399  and  _400
REMARK  163  A    between atoms: _400  and  _401
REMARK  164  A    between atoms: _401  and  _402
REMARK  165  A    between atoms: _411  and  _413
REMARK  166  A    between atoms: _413  and  _414
REMARK  167  A    between atoms: _413  and  _416
REMARK  168  A    between atoms: _416  and  _417
REMARK  169  A    between atoms: _420  and  _422
REMARK  170  A    between atoms: _422  and  _423
REMARK  171  A    between atoms: _422  and  _425
REMARK  172  A    between atoms: _425  and  _426
REMARK  173  A    between atoms: _436  and  _438
REMARK  174  A    between atoms: _438  and  _439
REMARK  175  A    between atoms: _438  and  _441
REMARK  176  A    between atoms: _441  and  _442
REMARK  177  A    between atoms: _447  and  _448
REMARK  178  A    between atoms: _450  and  _452
REMARK  179  A    between atoms: _452  and  _453
REMARK  180  A    between atoms: _452  and  _455
REMARK  181  A    between atoms: _455  and  _456
REMARK  182  A    between atoms: _461  and  _462
REMARK  183  A    between atoms: _464  and  _466
REMARK  184  A    between atoms: _466  and  _467
REMARK  185  A    between atoms: _466  and  _469
REMARK  186  A    between atoms: _469  and  _470
REMARK  187  A    between atoms: _470  and  _471
REMARK  188  A    between atoms: _471  and  _472
REMARK  189  A    between atoms: _472  and  _473
REMARK  190  A    between atoms: _477  and  _479
REMARK  191  A    between atoms: _479  and  _480
REMARK  192  A    between atoms: _479  and  _482
REMARK  193  A    between atoms: _482  and  _483
REMARK  194  A    between atoms: _486  and  _488
REMARK  195  A    between atoms: _488  and  _489
REMARK  196  A    between atoms: _488  and  _491
REMARK  197  A    between atoms: _494  and  _496
REMARK  198  A    between atoms: _496  and  _497
REMARK  199  A    between atoms: _496  and  _499
REMARK  200  A    between atoms: _499  and  _500
REMARK  201  A    between atoms: _503  and  _505
REMARK  202  A    between atoms: _505  and  _506
REMARK  203  A    between atoms: _505  and  _508
REMARK  204  A    between atoms: _508  and  _509
REMARK  205  A    between atoms: _511  and  _513
REMARK  206  A    between atoms: _513  and  _514
REMARK  207  A    between atoms: _516  and  _518
REMARK  208  A    between atoms: _518  and  _519
REMARK  209  A    between atoms: _518  and  _521
REMARK  210  A    between atoms: _521  and  _522
REMARK  211  A    between atoms: _525  and  _527
REMARK  212  A    between atoms: _527  and  _528
REMARK  213  A    between atoms: _527  and  _530
REMARK  214  A    between atoms: _530  and  _531
REMARK  215  A    between atoms: _534  and  _536
REMARK  216  A    between atoms: _536  and  _537
REMARK  217  A    between atoms: _536  and  _539
REMARK  218  A    between atoms: _539  and  _540
REMARK  219  A    between atoms: _545  and  _547
REMARK  220  A    between atoms: _547  and  _548
REMARK  221  A    between atoms: _547  and  _550
REMARK  222  A    between atoms: _550  and  _551
REMARK  223  A    between atoms: _554  and  _556
REMARK  224  A    between atoms: _556  and  _557
REMARK  225  A    between atoms: _556  and  _559
REMARK  226  A    between atoms: _559  and  _560
REMARK  227  A    between atoms: _560  and  _561
REMARK  228  A    between atoms: _561  and  _562
REMARK  229  A    between atoms: _571  and  _573
REMARK  230  A    between atoms: _573  and  _574
REMARK  231  A    between atoms: _573  and  _576
REMARK  232  A    between atoms: _576  and  _577
REMARK  233  A    between atoms: _580  and  _582
REMARK  234  A    between atoms: _582  and  _583
REMARK  235  A    between atoms: _585  and  _587
REMARK  236  A    between atoms: _587  and  _588
REMARK  237  A    between atoms: _587  and  _590
REMARK  238  A    between atoms: _590  and  _591
REMARK  239  A    between atoms: _591  and  _592
REMARK  240  A    between atoms: _592  and  _593
REMARK  241  A    between atoms: _602  and  _604
REMARK  242  A    between atoms: _604  and  _605
REMARK  243  A    between atoms: _604  and  _607
REMARK  244  A    between atoms: _607  and  _608
REMARK  245  A    between atoms: _608  and  _609
REMARK  246  A    between atoms: _609  and  _610
REMARK  247  A    between atoms: _610  and  _611
REMARK  248  A    between atoms: _615  and  _617
REMARK  249  A    between atoms: _617  and  _618
REMARK  250  A    between atoms: _617  and  _620
REMARK  251  A    between atoms: _620  and  _621
REMARK  252  A    between atoms: _627  and  _629
REMARK  253  A    between atoms: _629  and  _630
REMARK  254  A    between atoms: _633  and  _635
REMARK  255  A    between atoms: _635  and  _636
REMARK  256  A    between atoms: _635  and  _638
REMARK  257  A    between atoms: _638  and  _639
REMARK  258  A    between atoms: _642  and  _644
REMARK  259  A    between atoms: _644  and  _645
REMARK  260  A    between atoms: _644  and  _647
REMARK  261  A    between atoms: _647  and  _648
REMARK  262  A    between atoms: _650  and  _652
REMARK  263  A    between atoms: _652  and  _653
REMARK  264  A    between atoms: _652  and  _655
REMARK  265  A    between atoms: _655  and  _656
REMARK  266  A    between atoms: _656  and  _657
REMARK  267  A    between atoms: _662  and  _664
REMARK  268  A    between atoms: _664  and  _665
REMARK  269  A    between atoms: _664  and  _667
REMARK  270  A    between atoms: _667  and  _668
REMARK  271  A    between atoms: _670  and  _672
REMARK  272  A    between atoms: _672  and  _673
REMARK  273  A    between atoms: _672  and  _675
REMARK  274  A    between atoms: _675  and  _676
REMARK  275  A    between atoms: _679  and  _681
REMARK  276  A    between atoms: _681  and  _682
REMARK  277  A    between atoms: _684  and  _686
REMARK  278  A    between atoms: _686  and  _687
REMARK  279  A    between atoms: _686  and  _689
REMARK  280  A    between atoms: _689  and  _690
REMARK  281  A    between atoms: _693  and  _695
REMARK  282  A    between atoms: _695  and  _696
REMARK  283  A    between atoms: _695  and  _698
REMARK  284  A    between atoms: _701  and  _703
REMARK  285  A    between atoms: _703  and  _704
REMARK  286  A    between atoms: _706  and  _708
REMARK  287  A    between atoms: _708  and  _709
REMARK  288  A    between atoms: _712  and  _714
REMARK  289  A    between atoms: _714  and  _715
REMARK  290  A    between atoms: _714  and  _717
REMARK  291  A    between atoms: _720  and  _722
REMARK  292  A    between atoms: _722  and  _723
REMARK  293  A    between atoms: _722  and  _725
REMARK  294  A    between atoms: _725  and  _726
REMARK  295  A    between atoms: _726  and  _727
REMARK  296  A    between atoms: _729  and  _731
REMARK  297  A    between atoms: _731  and  _732
REMARK  298  A    between atoms: _731  and  _734
REMARK  299  A    between atoms: _734  and  _735
REMARK  300  A    between atoms: _735  and  _736
REMARK                            x       y       z     vdW  Elec       q    Type
REMARK                         _______ _______ _______ _____ _____    ______ ____
ROOT
ATOM      1  O   HOH     1      34.706  -9.340  15.655  0.00  0.00    +0.000 OA
ENDROOT
TORSDOF 0
REMARK  Name = ../refined-set-2016/4gid/4gid_pocket.pdb
REMARK  300 active torsions:
REMARK  status: ('A' for Active; 'I' for Inactive)
REMARK    1  A    between atoms: _1  and  _3
REMARK    2  A    between atoms: _3  and  _4
REMARK    3  A    between atoms: _6  and  _8
REMARK    4  A    between atoms: _8  and  _9
REMARK    5  A    between atoms: _8  and  _11
REMARK    6  A    between atoms: _11  and  _12
REMARK    7  A    between atoms: _12  and  _13
REMARK    8  A    between atoms: _13  and  _14
REMARK    9  A    between atoms: _14  and  _15
REMARK   10  A    between atoms: _19  and  _21
REMARK   11  A    between atoms: _21  and  _22
REMARK   12  A    between atoms: _21  and  _24
REMARK   13  A    between atoms: _24  and  _25
REMARK   14  A    between atoms: _27  and  _29
REMARK   15  A    between atoms: _29  and  _30
REMARK   16  A    between atoms: _32  and  _34
REMARK   17  A    between atoms: _34  and  _35
REMARK   18  A    between atoms: _34  and  _37
REMARK   19  A    between atoms: _37  and  _38
REMARK   20  A    between atoms: _38  and  _39
REMARK   21  A    between atoms: _44  and  _46
REMARK   22  A    between atoms: _46  and  _47
REMARK   23  A    between atoms: _49  and  _51
REMARK   24  A    between atoms: _51  and  _52
REMARK   25  A    between atoms: _51  and  _54
REMARK   26  A    between atoms: _54  and  _55
REMARK   27  A    between atoms: _60  and  _61
REMARK   28  A    between atoms: _63  and  _65
REMARK   29  A    between atoms: _65  and  _66
REMARK   30  A    between atoms: _65  and  _68
REMARK   31  A    between atoms: _68  and  _69
REMARK   32  A    between atoms: _74  and  _75
REMARK   33  A    between atoms: _77  and  _79
REMARK   34  A    between atoms: _79  and  _80
REMARK   35  A    between atoms: _79  and  _82
REMARK   36  A    between atoms: _82  and  _83
REMARK   37  A    between atoms: _86  and  _88
REMARK   38  A    between atoms: _88  and  _89
REMARK   39  A    between atoms: _88  and  _91
REMARK   40  A    between atoms: _94  and  _96
REMARK   41  A    between atoms: _96  and  _97
REMARK   42  A    between atoms: _96  and  _99
REMARK   43  A    between atoms: _99  and  _100
REMARK   44  A    between atoms: _103  and  _105
REMARK   45  A    between atoms: _105  and  _106
REMARK   46  A    between atoms: _105  and  _108
REMARK   47  A    between atoms: _108  and  _109
REMARK   48  A    between atoms: _112  and  _114
REMARK   49  A    between atoms: _114  and  _115
REMARK   50  A    between atoms: _117  and  _119
REMARK   51  A    between atoms: _119  and  _120
REMARK   52  A    between atoms: _119  and  _122
REMARK   53  A    between atoms: _122  and  _123
REMARK   54  A    between atoms: _125  and  _127
REMARK   55  A    between atoms: _127  and  _128
REMARK   56  A    between atoms: _127  and  _130
REMARK   57  A    between atoms: _130  and  _131
REMARK   58  A    between atoms: _133  and  _135
REMARK   59  A    between atoms: _135  and  _136
REMARK   60  A    between atoms: _135  and  _138
REMARK   61  A    between atoms: _138  and  _139
REMARK   62  A    between atoms: _144  and  _146
REMARK   63  A    between atoms: _146  and  _147
REMARK   64  A    between atoms: _146  and  _149
REMARK   65  A    between atoms: _149  and  _150
REMARK   66  A    between atoms: _155  and  _156
REMARK   67  A    between atoms: _158  and  _160
REMARK   68  A    between atoms: _160  and  _161
REMARK   69  A    between atoms: _160  and  _163
REMARK   70  A    between atoms: _167  and  _168
REMARK   71  A    between atoms: _173  and  _175
REMARK   72  A    between atoms: _175  and  _176
REMARK   73  A    between atoms: _175  and  _178
REMARK   74  A    between atoms: _178  and  _179
REMARK   75  A    between atoms: _184  and  _185
REMARK   76  A    between atoms: _187  and  _189
REMARK   77  A    between atoms: _189  and  _190
REMARK   78  A    between atoms: _189  and  _192
REMARK   79  A    between atoms: _192  and  _193
REMARK   80  A    between atoms: _196  and  _198
REMARK   81  A    between atoms: _198  and  _199
REMARK   82  A    between atoms: _198  and  _201
REMARK   83  A    between atoms: _201  and  _202
REMARK   84  A    between atoms: _202  and  _203
REMARK   85  A    between atoms: _208  and  _210
REMARK   86  A    between atoms: _210  and  _211
REMARK   87  A    between atoms: _213  and  _215
REMARK   88  A    between atoms: _215  and  _216
REMARK   89  A    between atoms: _215  and  _218
REMARK   90  A    between atoms: _218  and  _219
REMARK   91  A    between atoms: _219  and  _220
REMARK   92  A    between atoms: _220  and  _221
REMARK   93  A    between atoms: _221  and  _222
REMARK   94  A    between atoms: _226  and  _228
REMARK   95  A    between atoms: _228  and  _229
REMARK   96  A    between atoms: _228  and  _231
REMARK   97  A    between atoms: _231  and  _232
REMARK   98  A    between atoms: _242  and  _244
REMARK   99  A    between atoms: _244  and  _245
REMARK  100  A    between atoms: _244  and  _247
REMARK  101  A    between atoms: _247  and  _248
REMARK  102  A    between atoms: _251  and  _253
REMARK  103  A    between atoms: _253  and  _254
REMARK  104  A    between atoms: _253  and  _256
REMARK  105  A    between atoms: _256  and  _257
REMARK  106  A    between atoms: _257  and  _258
REMARK  107  A    between atoms: _258  and  _259
REMARK  108  A    between atoms: _259  and  _260
REMARK  109  A    between atoms: _264  and  _266
REMARK  110  A    between atoms: _266  and  _267
REMARK  111  A    between atoms: _266  and  _269
REMARK  112  A    between atoms: _269  and  _270
REMARK  113  A    between atoms: _276  and  _278
REMARK  114  A    between atoms: _278  and  _279
REMARK  115  A    between atoms: _278  and  _281
REMARK  116  A    between atoms: _281  and  _282
REMARK  117  A    between atoms: _288  and  _290
REMARK  118  A    between atoms: _290  and  _291
REMARK  119  A    between atoms: _290  and  _293
REMARK  120  A    between atoms: _293  and  _294
REMARK  121  A    between atoms: _297  and  _299
REMARK  122  A    between atoms: _299  and  _300
REMARK  123  A    between atoms: _299  and  _302
REMARK  124  A    between atoms: _302  and  _303
REMARK  125  A    between atoms: _305  and  _307
REMARK  126  A    between atoms: _307  and  _308
REMARK  127  A    between atoms: _307  and  _310
REMARK  128  A    between atoms: _310  and  _311
REMARK  129  A    between atoms: _321  and  _323
REMARK  130  A    between atoms: _323  and  _324
REMARK  131  A    between atoms: _326  and  _328
REMARK  132  A    between atoms: _328  and  _329
REMARK  133  A    between atoms: _328  and  _331
REMARK  134  A    between atoms: _331  and  _332
REMARK  135  A    between atoms: _335  and  _337
REMARK  136  A    between atoms: _337  and  _338
REMARK  137  A    between atoms: _337  and  _340
REMARK  138  A    between atoms: _340  and  _341
REMARK  139  A    between atoms: _344  and  _346
REMARK  140  A    between atoms: _346  and  _347
REMARK  141  A    between atoms: _349  and  _351
REMARK  142  A    between atoms: _351  and  _352
REMARK  143  A    between atoms: _355  and  _357
REMARK  144  A    between atoms: _357  and  _358
REMARK  145  A    between atoms: _357  and  _360
REMARK  146  A    between atoms: _360  and  _361
REMARK  147  A    between atoms: _366  and  _367
REMARK  148  A    between atoms: _369  and  _371
REMARK  149  A    between atoms: _371  and  _372
REMARK  150  A    between atoms: _371  and  _374
REMARK  151  A    between atoms: _374  and  _375
REMARK  152  A    between atoms: _375  and  _376
REMARK  153  A    between atoms: _379  and  _381
REMARK  154  A    between atoms: _381  and  _382
REMARK  155  A    between atoms: _381  and  _384
REMARK  156  A    between atoms: _384  and  _385
REMARK  157  A    between atoms: _388  and  _390
REMARK  158  A    between atoms: _390  and  _391
REMARK  159  A    between atoms: _394  and  _396
REMARK  160  A    between atoms: _396  and  _397
REMARK  161  A    between atoms: _396  and  _399
REMARK  162  A    between atoms: _399  and  _400
REMARK  163  A    between atoms: _400  and  _401
REMARK  164  A    between atoms: _401  and  _402
REMARK  165  A    between atoms: _411  and  _413
REMARK  166  A    between atoms: _413  and  _414
REMARK  167  A    between atoms: _413  and  _416
REMARK  168  A    between atoms: _416  and  _417
REMARK  169  A    between atoms: _420  and  _422
REMARK  170  A    between atoms: _422  and  _423
REMARK  171  A    between atoms: _422  and  _425
REMARK  172  A    between atoms: _425  and  _426
REMARK  173  A    between atoms: _436  and  _438
REMARK  174  A    between atoms: _438  and  _439
REMARK  175  A    between atoms: _438  and  _441
REMARK  176  A    between atoms: _441  and  _442
REMARK  177  A    between atoms: _447  and  _448
REMARK  178  A    between atoms: _450  and  _452
REMARK  179  A    between atoms: _452  and  _453
REMARK  180  A    between atoms: _452  and  _455
REMARK  181  A    between atoms: _455  and  _456
REMARK  182  A    between atoms: _461  and  _462
REMARK  183  A    between atoms: _464  and  _466
REMARK  184  A    between atoms: _466  and  _467
REMARK  185  A    between atoms: _466  and  _469
REMARK  186  A    between atoms: _469  and  _470
REMARK  187  A    between atoms: _470  and  _471
REMARK  188  A    between atoms: _471  and  _472
REMARK  189  A    between atoms: _472  and  _473
REMARK  190  A    between atoms: _477  and  _479
REMARK  191  A    between atoms: _479  and  _480
REMARK  192  A    between atoms: _479  and  _482
REMARK  193  A    between atoms: _482  and  _483
REMARK  194  A    between atoms: _486  and  _488
REMARK  195  A    between atoms: _488  and  _489
REMARK  196  A    between atoms: _488  and  _491
REMARK  197  A    between atoms: _494  and  _496
REMARK  198  A    between atoms: _496  and  _497
REMARK  199  A    between atoms: _496  and  _499
REMARK  200  A    between atoms: _499  and  _500
REMARK  201  A    between atoms: _503  and  _505
REMARK  202  A    between atoms: _505  and  _506
REMARK  203  A    between atoms: _505  and  _508
REMARK  204  A    between atoms: _508  and  _509
REMARK  205  A    between atoms: _511  and  _513
REMARK  206  A    between atoms: _513  and  _514
REMARK  207  A    between atoms: _516  and  _518
REMARK  208  A    between atoms: _518  and  _519
REMARK  209  A    between atoms: _518  and  _521
REMARK  210  A    between atoms: _521  and  _522
REMARK  211  A    between atoms: _525  and  _527
REMARK  212  A    between atoms: _527  and  _528
REMARK  213  A    between atoms: _527  and  _530
REMARK  214  A    between atoms: _530  and  _531
REMARK  215  A    between atoms: _534  and  _536
REMARK  216  A    between atoms: _536  and  _537
REMARK  217  A    between atoms: _536  and  _539
REMARK  218  A    between atoms: _539  and  _540
REMARK  219  A    between atoms: _545  and  _547
REMARK  220  A    between atoms: _547  and  _548
REMARK  221  A    between atoms: _547  and  _550
REMARK  222  A    between atoms: _550  and  _551
REMARK  223  A    between atoms: _554  and  _556
REMARK  224  A    between atoms: _556  and  _557
REMARK  225  A    between atoms: _556  and  _559
REMARK  226  A    between atoms: _559  and  _560
REMARK  227  A    between atoms: _560  and  _561
REMARK  228  A    between atoms: _561  and  _562
REMARK  229  A    between atoms: _571  and  _573
REMARK  230  A    between atoms: _573  and  _574
REMARK  231  A    between atoms: _573  and  _576
REMARK  232  A    between atoms: _576  and  _577
REMARK  233  A    between atoms: _580  and  _582
REMARK  234  A    between atoms: _582  and  _583
REMARK  235  A    between atoms: _585  and  _587
REMARK  236  A    between atoms: _587  and  _588
REMARK  237  A    between atoms: _587  and  _590
REMARK  238  A    between atoms: _590  and  _591
REMARK  239  A    between atoms: _591  and  _592
REMARK  240  A    between atoms: _592  and  _593
REMARK  241  A    between atoms: _602  and  _604
REMARK  242  A    between atoms: _604  and  _605
REMARK  243  A    between atoms: _604  and  _607
REMARK  244  A    between atoms: _607  and  _608
REMARK  245  A    between atoms: _608  and  _609
REMARK  246  A    between atoms: _609  and  _610
REMARK  247  A    between atoms: _610  and  _611
REMARK  248  A    between atoms: _615  and  _617
REMARK  249  A    between atoms: _617  and  _618
REMARK  250  A    between atoms: _617  and  _620
REMARK  251  A    between atoms: _620  and  _621
REMARK  252  A    between atoms: _627  and  _629
REMARK  253  A    between atoms: _629  and  _630
REMARK  254  A    between atoms: _633  and  _635
REMARK  255  A    between atoms: _635  and  _636
REMARK  256  A    between atoms: _635  and  _638
REMARK  257  A    between atoms: _638  and  _639
REMARK  258  A    between atoms: _642  and  _644
REMARK  259  A    between atoms: _644  and  _645
REMARK  260  A    between atoms: _644  and  _647
REMARK  261  A    between atoms: _647  and  _648
REMARK  262  A    between atoms: _650  and  _652
REMARK  263  A    between atoms: _652  and  _653
REMARK  264  A    between atoms: _652  and  _655
REMARK  265  A    between atoms: _655  and  _656
REMARK  266  A    between atoms: _656  and  _657
REMARK  267  A    between atoms: _662  and  _664
REMARK  268  A    between atoms: _664  and  _665
REMARK  269  A    between atoms: _664  and  _667
REMARK  270  A    between atoms: _667  and  _668
REMARK  271  A    between atoms: _670  and  _672
REMARK  272  A    between atoms: _672  and  _673
REMARK  273  A    between atoms: _672  and  _675
REMARK  274  A    between atoms: _675  and  _676
REMARK  275  A    between atoms: _679  and  _681
REMARK  276  A    between atoms: _681  and  _682
REMARK  277  A    between atoms: _684  and  _686
REMARK  278  A    between atoms: _686  and  _687
REMARK  279  A    between atoms: _686  and  _689
REMARK  280  A    between atoms: _689  and  _690
REMARK  281  A    between atoms: _693  and  _695
REMARK  282  A    between atoms: _695  and  _696
REMARK  283  A    between atoms: _695  and  _698
REMARK  284  A    between atoms: _701  and  _703
REMARK  285  A    between atoms: _703  and  _704
REMARK  286  A    between atoms: _706  and  _708
REMARK  287  A    between atoms: _708  and  _709
REMARK  288  A    between atoms: _712  and  _714
REMARK  289  A    between atoms: _714  and  _715
REMARK  290  A    between atoms: _714  and  _717
REMARK  291  A    between atoms: _720  and  _722
REMARK  292  A    between atoms: _722  and  _723
REMARK  293  A    between atoms: _722  and  _725
REMARK  294  A    between atoms: _725  and  _726
REMARK  295  A    between atoms: _726  and  _727
REMARK  296  A    between atoms: _729  and  _731
REMARK  297  A    between atoms: _731  and  _732
REMARK  298  A    between atoms: _731  and  _734
REMARK  299  A    between atoms: _734  and  _735
REMARK  300  A    between atoms: _735  and  _736
REMARK                            x       y       z     vdW  Elec       q    Type
REMARK                         _______ _______ _______ _____ _____    ______ ____
ROOT
ATOM      1  O   HOH     1      28.119   1.139   9.647  0.00  0.00    +0.000 OA
ENDROOT
TORSDOF 0
REMARK  Name = ../refined-set-2016/4gid/4gid_pocket.pdb
REMARK  300 active torsions:
REMARK  status: ('A' for Active; 'I' for Inactive)
REMARK    1  A    between atoms: _1  and  _3
REMARK    2  A    between atoms: _3  and  _4
REMARK    3  A    between atoms: _6  and  _8
REMARK    4  A    between atoms: _8  and  _9
REMARK    5  A    between atoms: _8  and  _11
REMARK    6  A    between atoms: _11  and  _12
REMARK    7  A    between atoms: _12  and  _13
REMARK    8  A    between atoms: _13  and  _14
REMARK    9  A    between atoms: _14  and  _15
REMARK   10  A    between atoms: _19  and  _21
REMARK   11  A    between atoms: _21  and  _22
REMARK   12  A    between atoms: _21  and  _24
REMARK   13  A    between atoms: _24  and  _25
REMARK   14  A    between atoms: _27  and  _29
REMARK   15  A    between atoms: _29  and  _30
REMARK   16  A    between atoms: _32  and  _34
REMARK   17  A    between atoms: _34  and  _35
REMARK   18  A    between atoms: _34  and  _37
REMARK   19  A    between atoms: _37  and  _38
REMARK   20  A    between atoms: _38  and  _39
REMARK   21  A    between atoms: _44  and  _46
REMARK   22  A    between atoms: _46  and  _47
REMARK   23  A    between atoms: _49  and  _51
REMARK   24  A    between atoms: _51  and  _52
REMARK   25  A    between atoms: _51  and  _54
REMARK   26  A    between atoms: _54  and  _55
REMARK   27  A    between atoms: _60  and  _61
REMARK   28  A    between atoms: _63  and  _65
REMARK   29  A    between atoms: _65  and  _66
REMARK   30  A    between atoms: _65  and  _68
REMARK   31  A    between atoms: _68  and  _69
REMARK   32  A    between atoms: _74  and  _75
REMARK   33  A    between atoms: _77  and  _79
REMARK   34  A    between atoms: _79  and  _80
REMARK   35  A    between atoms: _79  and  _82
REMARK   36  A    between atoms: _82  and  _83
REMARK   37  A    between atoms: _86  and  _88
REMARK   38  A    between atoms: _88  and  _89
REMARK   39  A    between atoms: _88  and  _91
REMARK   40  A    between atoms: _94  and  _96
REMARK   41  A    between atoms: _96  and  _97
REMARK   42  A    between atoms: _96  and  _99
REMARK   43  A    between atoms: _99  and  _100
REMARK   44  A    between atoms: _103  and  _105
REMARK   45  A    between atoms: _105  and  _106
REMARK   46  A    between atoms: _105  and  _108
REMARK   47  A    between atoms: _108  and  _109
REMARK   48  A    between atoms: _112  and  _114
REMARK   49  A    between atoms: _114  and  _115
REMARK   50  A    between atoms: _117  and  _119
REMARK   51  A    between atoms: _119  and  _120
REMARK   52  A    between atoms: _119  and  _122
REMARK   53  A    between atoms: _122  and  _123
REMARK   54  A    between atoms: _125  and  _127
REMARK   55  A    between atoms: _127  and  _128
REMARK   56  A    between atoms: _127  and  _130
REMARK   57  A    between atoms: _130  and  _131
REMARK   58  A    between atoms: _133  and  _135
REMARK   59  A    between atoms: _135  and  _136
REMARK   60  A    between atoms: _135  and  _138
REMARK   61  A    between atoms: _138  and  _139
REMARK   62  A    between atoms: _144  and  _146
REMARK   63  A    between atoms: _146  and  _147
REMARK   64  A    between atoms: _146  and  _149
REMARK   65  A    between atoms: _149  and  _150
REMARK   66  A    between atoms: _155  and  _156
REMARK   67  A    between atoms: _158  and  _160
REMARK   68  A    between atoms: _160  and  _161
REMARK   69  A    between atoms: _160  and  _163
REMARK   70  A    between atoms: _167  and  _168
REMARK   71  A    between atoms: _173  and  _175
REMARK   72  A    between atoms: _175  and  _176
REMARK   73  A    between atoms: _175  and  _178
REMARK   74  A    between atoms: _178  and  _179
REMARK   75  A    between atoms: _184  and  _185
REMARK   76  A    between atoms: _187  and  _189
REMARK   77  A    between atoms: _189  and  _190
REMARK   78  A    between atoms: _189  and  _192
REMARK   79  A    between atoms: _192  and  _193
REMARK   80  A    between atoms: _196  and  _198
REMARK   81  A    between atoms: _198  and  _199
REMARK   82  A    between atoms: _198  and  _201
REMARK   83  A    between atoms: _201  and  _202
REMARK   84  A    between atoms: _202  and  _203
REMARK   85  A    between atoms: _208  and  _210
REMARK   86  A    between atoms: _210  and  _211
REMARK   87  A    between atoms: _213  and  _215
REMARK   88  A    between atoms: _215  and  _216
REMARK   89  A    between atoms: _215  and  _218
REMARK   90  A    between atoms: _218  and  _219
REMARK   91  A    between atoms: _219  and  _220
REMARK   92  A    between atoms: _220  and  _221
REMARK   93  A    between atoms: _221  and  _222
REMARK   94  A    between atoms: _226  and  _228
REMARK   95  A    between atoms: _228  and  _229
REMARK   96  A    between atoms: _228  and  _231
REMARK   97  A    between atoms: _231  and  _232
REMARK   98  A    between atoms: _242  and  _244
REMARK   99  A    between atoms: _244  and  _245
REMARK  100  A    between atoms: _244  and  _247
REMARK  101  A    between atoms: _247  and  _248
REMARK  102  A    between atoms: _251  and  _253
REMARK  103  A    between atoms: _253  and  _254
REMARK  104  A    between atoms: _253  and  _256
REMARK  105  A    between atoms: _256  and  _257
REMARK  106  A    between atoms: _257  and  _258
REMARK  107  A    between atoms: _258  and  _259
REMARK  108  A    between atoms: _259  and  _260
REMARK  109  A    between atoms: _264  and  _266
REMARK  110  A    between atoms: _266  and  _267
REMARK  111  A    between atoms: _266  and  _269
REMARK  112  A    between atoms: _269  and  _270
REMARK  113  A    between atoms: _276  and  _278
REMARK  114  A    between atoms: _278  and  _279
REMARK  115  A    between atoms: _278  and  _281
REMARK  116  A    between atoms: _281  and  _282
REMARK  117  A    between atoms: _288  and  _290
REMARK  118  A    between atoms: _290  and  _291
REMARK  119  A    between atoms: _290  and  _293
REMARK  120  A    between atoms: _293  and  _294
REMARK  121  A    between atoms: _297  and  _299
REMARK  122  A    between atoms: _299  and  _300
REMARK  123  A    between atoms: _299  and  _302
REMARK  124  A    between atoms: _302  and  _303
REMARK  125  A    between atoms: _305  and  _307
REMARK  126  A    between atoms: _307  and  _308
REMARK  127  A    between atoms: _307  and  _310
REMARK  128  A    between atoms: _310  and  _311
REMARK  129  A    between atoms: _321  and  _323
REMARK  130  A    between atoms: _323  and  _324
REMARK  131  A    between atoms: _326  and  _328
REMARK  132  A    between atoms: _328  and  _329
REMARK  133  A    between atoms: _328  and  _331
REMARK  134  A    between atoms: _331  and  _332
REMARK  135  A    between atoms: _335  and  _337
REMARK  136  A    between atoms: _337  and  _338
REMARK  137  A    between atoms: _337  and  _340
REMARK  138  A    between atoms: _340  and  _341
REMARK  139  A    between atoms: _344  and  _346
REMARK  140  A    between atoms: _346  and  _347
REMARK  141  A    between atoms: _349  and  _351
REMARK  142  A    between atoms: _351  and  _352
REMARK  143  A    between atoms: _355  and  _357
REMARK  144  A    between atoms: _357  and  _358
REMARK  145  A    between atoms: _357  and  _360
REMARK  146  A    between atoms: _360  and  _361
REMARK  147  A    between atoms: _366  and  _367
REMARK  148  A    between atoms: _369  and  _371
REMARK  149  A    between atoms: _371  and  _372
REMARK  150  A    between atoms: _371  and  _374
REMARK  151  A    between atoms: _374  and  _375
REMARK  152  A    between atoms: _375  and  _376
REMARK  153  A    between atoms: _379  and  _381
REMARK  154  A    between atoms: _381  and  _382
REMARK  155  A    between atoms: _381  and  _384
REMARK  156  A    between atoms: _384  and  _385
REMARK  157  A    between atoms: _388  and  _390
REMARK  158  A    between atoms: _390  and  _391
REMARK  159  A    between atoms: _394  and  _396
REMARK  160  A    between atoms: _396  and  _397
REMARK  161  A    between atoms: _396  and  _399
REMARK  162  A    between atoms: _399  and  _400
REMARK  163  A    between atoms: _400  and  _401
REMARK  164  A    between atoms: _401  and  _402
REMARK  165  A    between atoms: _411  and  _413
REMARK  166  A    between atoms: _413  and  _414
REMARK  167  A    between atoms: _413  and  _416
REMARK  168  A    between atoms: _416  and  _417
REMARK  169  A    between atoms: _420  and  _422
REMARK  170  A    between atoms: _422  and  _423
REMARK  171  A    between atoms: _422  and  _425
REMARK  172  A    between atoms: _425  and  _426
REMARK  173  A    between atoms: _436  and  _438
REMARK  174  A    between atoms: _438  and  _439
REMARK  175  A    between atoms: _438  and  _441
REMARK  176  A    between atoms: _441  and  _442
REMARK  177  A    between atoms: _447  and  _448
REMARK  178  A    between atoms: _450  and  _452
REMARK  179  A    between atoms: _452  and  _453
REMARK  180  A    between atoms: _452  and  _455
REMARK  181  A    between atoms: _455  and  _456
REMARK  182  A    between atoms: _461  and  _462
REMARK  183  A    between atoms: _464  and  _466
REMARK  184  A    between atoms: _466  and  _467
REMARK  185  A    between atoms: _466  and  _469
REMARK  186  A    between atoms: _469  and  _470
REMARK  187  A    between atoms: _470  and  _471
REMARK  188  A    between atoms: _471  and  _472
REMARK  189  A    between atoms: _472  and  _473
REMARK  190  A    between atoms: _477  and  _479
REMARK  191  A    between atoms: _479  and  _480
REMARK  192  A    between atoms: _479  and  _482
REMARK  193  A    between atoms: _482  and  _483
REMARK  194  A    between atoms: _486  and  _488
REMARK  195  A    between atoms: _488  and  _489
REMARK  196  A    between atoms: _488  and  _491
REMARK  197  A    between atoms: _494  and  _496
REMARK  198  A    between atoms: _496  and  _497
REMARK  199  A    between atoms: _496  and  _499
REMARK  200  A    between atoms: _499  and  _500
REMARK  201  A    between atoms: _503  and  _505
REMARK  202  A    between atoms: _505  and  _506
REMARK  203  A    between atoms: _505  and  _508
REMARK  204  A    between atoms: _508  and  _509
REMARK  205  A    between atoms: _511  and  _513
REMARK  206  A    between atoms: _513  and  _514
REMARK  207  A    between atoms: _516  and  _518
REMARK  208  A    between atoms: _518  and  _519
REMARK  209  A    between atoms: _518  and  _521
REMARK  210  A    between atoms: _521  and  _522
REMARK  211  A    between atoms: _525  and  _527
REMARK  212  A    between atoms: _527  and  _528
REMARK  213  A    between atoms: _527  and  _530
REMARK  214  A    between atoms: _530  and  _531
REMARK  215  A    between atoms: _534  and  _536
REMARK  216  A    between atoms: _536  and  _537
REMARK  217  A    between atoms: _536  and  _539
REMARK  218  A    between atoms: _539  and  _540
REMARK  219  A    between atoms: _545  and  _547
REMARK  220  A    between atoms: _547  and  _548
REMARK  221  A    between atoms: _547  and  _550
REMARK  222  A    between atoms: _550  and  _551
REMARK  223  A    between atoms: _554  and  _556
REMARK  224  A    between atoms: _556  and  _557
REMARK  225  A    between atoms: _556  and  _559
REMARK  226  A    between atoms: _559  and  _560
REMARK  227  A    between atoms: _560  and  _561
REMARK  228  A    between atoms: _561  and  _562
REMARK  229  A    between atoms: _571  and  _573
REMARK  230  A    between atoms: _573  and  _574
REMARK  231  A    between atoms: _573  and  _576
REMARK  232  A    between atoms: _576  and  _577
REMARK  233  A    between atoms: _580  and  _582
REMARK  234  A    between atoms: _582  and  _583
REMARK  235  A    between atoms: _585  and  _587
REMARK  236  A    between atoms: _587  and  _588
REMARK  237  A    between atoms: _587  and  _590
REMARK  238  A    between atoms: _590  and  _591
REMARK  239  A    between atoms: _591  and  _592
REMARK  240  A    between atoms: _592  and  _593
REMARK  241  A    between atoms: _602  and  _604
REMARK  242  A    between atoms: _604  and  _605
REMARK  243  A    between atoms: _604  and  _607
REMARK  244  A    between atoms: _607  and  _608
REMARK  245  A    between atoms: _608  and  _609
REMARK  246  A    between atoms: _609  and  _610
REMARK  247  A    between atoms: _610  and  _611
REMARK  248  A    between atoms: _615  and  _617
REMARK  249  A    between atoms: _617  and  _618
REMARK  250  A    between atoms: _617  and  _620
REMARK  251  A    between atoms: _620  and  _621
REMARK  252  A    between atoms: _627  and  _629
REMARK  253  A    between atoms: _629  and  _630
REMARK  254  A    between atoms: _633  and  _635
REMARK  255  A    between atoms: _635  and  _636
REMARK  256  A    between atoms: _635  and  _638
REMARK  257  A    between atoms: _638  and  _639
REMARK  258  A    between atoms: _642  and  _644
REMARK  259  A    between atoms: _644  and  _645
REMARK  260  A    between atoms: _644  and  _647
REMARK  261  A    between atoms: _647  and  _648
REMARK  262  A    between atoms: _650  and  _652
REMARK  263  A    between atoms: _652  and  _653
REMARK  264  A    between atoms: _652  and  _655
REMARK  265  A    between atoms: _655  and  _656
REMARK  266  A    between atoms: _656  and  _657
REMARK  267  A    between atoms: _662  and  _664
REMARK  268  A    between atoms: _664  and  _665
REMARK  269  A    between atoms: _664  and  _667
REMARK  270  A    between atoms: _667  and  _668
REMARK  271  A    between atoms: _670  and  _672
REMARK  272  A    between atoms: _672  and  _673
REMARK  273  A    between atoms: _672  and  _675
REMARK  274  A    between atoms: _675  and  _676
REMARK  275  A    between atoms: _679  and  _681
REMARK  276  A    between atoms: _681  and  _682
REMARK  277  A    between atoms: _684  and  _686
REMARK  278  A    between atoms: _686  and  _687
REMARK  279  A    between atoms: _686  and  _689
REMARK  280  A    between atoms: _689  and  _690
REMARK  281  A    between atoms: _693  and  _695
REMARK  282  A    between atoms: _695  and  _696
REMARK  283  A    between atoms: _695  and  _698
REMARK  284  A    between atoms: _701  and  _703
REMARK  285  A    between atoms: _703  and  _704
REMARK  286  A    between atoms: _706  and  _708
REMARK  287  A    between atoms: _708  and  _709
REMARK  288  A    between atoms: _712  and  _714
REMARK  289  A    between atoms: _714  and  _715
REMARK  290  A    between atoms: _714  and  _717
REMARK  291  A    between atoms: _720  and  _722
REMARK  292  A    between atoms: _722  and  _723
REMARK  293  A    between atoms: _722  and  _725
REMARK  294  A    between atoms: _725  and  _726
REMARK  295  A    between atoms: _726  and  _727
REMARK  296  A    between atoms: _729  and  _731
REMARK  297  A    between atoms: _731  and  _732
REMARK  298  A    between atoms: _731  and  _734
REMARK  299  A    between atoms: _734  and  _735
REMARK  300  A    between atoms: _735  and  _736
REMARK                            x       y       z     vdW  Elec       q    Type
REMARK                         _______ _______ _______ _____ _____    ______ ____
ROOT
ATOM      1  O   HOH     1      33.671  -7.772  13.606  0.00  0.00    +0.000 OA
ENDROOT
TORSDOF 0
REMARK  Name = ../refined-set-2016/4gid/4gid_pocket.pdb
REMARK  300 active torsions:
REMARK  status: ('A' for Active; 'I' for Inactive)
REMARK    1  A    between atoms: _1  and  _3
REMARK    2  A    between atoms: _3  and  _4
REMARK    3  A    between atoms: _6  and  _8
REMARK    4  A    between atoms: _8  and  _9
REMARK    5  A    between atoms: _8  and  _11
REMARK    6  A    between atoms: _11  and  _12
REMARK    7  A    between atoms: _12  and  _13
REMARK    8  A    between atoms: _13  and  _14
REMARK    9  A    between atoms: _14  and  _15
REMARK   10  A    between atoms: _19  and  _21
REMARK   11  A    between atoms: _21  and  _22
REMARK   12  A    between atoms: _21  and  _24
REMARK   13  A    between atoms: _24  and  _25
REMARK   14  A    between atoms: _27  and  _29
REMARK   15  A    between atoms: _29  and  _30
REMARK   16  A    between atoms: _32  and  _34
REMARK   17  A    between atoms: _34  and  _35
REMARK   18  A    between atoms: _34  and  _37
REMARK   19  A    between atoms: _37  and  _38
REMARK   20  A    between atoms: _38  and  _39
REMARK   21  A    between atoms: _44  and  _46
REMARK   22  A    between atoms: _46  and  _47
REMARK   23  A    between atoms: _49  and  _51
REMARK   24  A    between atoms: _51  and  _52
REMARK   25  A    between atoms: _51  and  _54
REMARK   26  A    between atoms: _54  and  _55
REMARK   27  A    between atoms: _60  and  _61
REMARK   28  A    between atoms: _63  and  _65
REMARK   29  A    between atoms: _65  and  _66
REMARK   30  A    between atoms: _65  and  _68
REMARK   31  A    between atoms: _68  and  _69
REMARK   32  A    between atoms: _74  and  _75
REMARK   33  A    between atoms: _77  and  _79
REMARK   34  A    between atoms: _79  and  _80
REMARK   35  A    between atoms: _79  and  _82
REMARK   36  A    between atoms: _82  and  _83
REMARK   37  A    between atoms: _86  and  _88
REMARK   38  A    between atoms: _88  and  _89
REMARK   39  A    between atoms: _88  and  _91
REMARK   40  A    between atoms: _94  and  _96
REMARK   41  A    between atoms: _96  and  _97
REMARK   42  A    between atoms: _96  and  _99
REMARK   43  A    between atoms: _99  and  _100
REMARK   44  A    between atoms: _103  and  _105
REMARK   45  A    between atoms: _105  and  _106
REMARK   46  A    between atoms: _105  and  _108
REMARK   47  A    between atoms: _108  and  _109
REMARK   48  A    between atoms: _112  and  _114
REMARK   49  A    between atoms: _114  and  _115
REMARK   50  A    between atoms: _117  and  _119
REMARK   51  A    between atoms: _119  and  _120
REMARK   52  A    between atoms: _119  and  _122
REMARK   53  A    between atoms: _122  and  _123
REMARK   54  A    between atoms: _125  and  _127
REMARK   55  A    between atoms: _127  and  _128
REMARK   56  A    between atoms: _127  and  _130
REMARK   57  A    between atoms: _130  and  _131
REMARK   58  A    between atoms: _133  and  _135
REMARK   59  A    between atoms: _135  and  _136
REMARK   60  A    between atoms: _135  and  _138
REMARK   61  A    between atoms: _138  and  _139
REMARK   62  A    between atoms: _144  and  _146
REMARK   63  A    between atoms: _146  and  _147
REMARK   64  A    between atoms: _146  and  _149
REMARK   65  A    between atoms: _149  and  _150
REMARK   66  A    between atoms: _155  and  _156
REMARK   67  A    between atoms: _158  and  _160
REMARK   68  A    between atoms: _160  and  _161
REMARK   69  A    between atoms: _160  and  _163
REMARK   70  A    between atoms: _167  and  _168
REMARK   71  A    between atoms: _173  and  _175
REMARK   72  A    between atoms: _175  and  _176
REMARK   73  A    between atoms: _175  and  _178
REMARK   74  A    between atoms: _178  and  _179
REMARK   75  A    between atoms: _184  and  _185
REMARK   76  A    between atoms: _187  and  _189
REMARK   77  A    between atoms: _189  and  _190
REMARK   78  A    between atoms: _189  and  _192
REMARK   79  A    between atoms: _192  and  _193
REMARK   80  A    between atoms: _196  and  _198
REMARK   81  A    between atoms: _198  and  _199
REMARK   82  A    between atoms: _198  and  _201
REMARK   83  A    between atoms: _201  and  _202
REMARK   84  A    between atoms: _202  and  _203
REMARK   85  A    between atoms: _208  and  _210
REMARK   86  A    between atoms: _210  and  _211
REMARK   87  A    between atoms: _213  and  _215
REMARK   88  A    between atoms: _215  and  _216
REMARK   89  A    between atoms: _215  and  _218
REMARK   90  A    between atoms: _218  and  _219
REMARK   91  A    between atoms: _219  and  _220
REMARK   92  A    between atoms: _220  and  _221
REMARK   93  A    between atoms: _221  and  _222
REMARK   94  A    between atoms: _226  and  _228
REMARK   95  A    between atoms: _228  and  _229
REMARK   96  A    between atoms: _228  and  _231
REMARK   97  A    between atoms: _231  and  _232
REMARK   98  A    between atoms: _242  and  _244
REMARK   99  A    between atoms: _244  and  _245
REMARK  100  A    between atoms: _244  and  _247
REMARK  101  A    between atoms: _247  and  _248
REMARK  102  A    between atoms: _251  and  _253
REMARK  103  A    between atoms: _253  and  _254
REMARK  104  A    between atoms: _253  and  _256
REMARK  105  A    between atoms: _256  and  _257
REMARK  106  A    between atoms: _257  and  _258
REMARK  107  A    between atoms: _258  and  _259
REMARK  108  A    between atoms: _259  and  _260
REMARK  109  A    between atoms: _264  and  _266
REMARK  110  A    between atoms: _266  and  _267
REMARK  111  A    between atoms: _266  and  _269
REMARK  112  A    between atoms: _269  and  _270
REMARK  113  A    between atoms: _276  and  _278
REMARK  114  A    between atoms: _278  and  _279
REMARK  115  A    between atoms: _278  and  _281
REMARK  116  A    between atoms: _281  and  _282
REMARK  117  A    between atoms: _288  and  _290
REMARK  118  A    between atoms: _290  and  _291
REMARK  119  A    between atoms: _290  and  _293
REMARK  120  A    between atoms: _293  and  _294
REMARK  121  A    between atoms: _297  and  _299
REMARK  122  A    between atoms: _299  and  _300
REMARK  123  A    between atoms: _299  and  _302
REMARK  124  A    between atoms: _302  and  _303
REMARK  125  A    between atoms: _305  and  _307
REMARK  126  A    between atoms: _307  and  _308
REMARK  127  A    between atoms: _307  and  _310
REMARK  128  A    between atoms: _310  and  _311
REMARK  129  A    between atoms: _321  and  _323
REMARK  130  A    between atoms: _323  and  _324
REMARK  131  A    between atoms: _326  and  _328
REMARK  132  A    between atoms: _328  and  _329
REMARK  133  A    between atoms: _328  and  _331
REMARK  134  A    between atoms: _331  and  _332
REMARK  135  A    between atoms: _335  and  _337
REMARK  136  A    between atoms: _337  and  _338
REMARK  137  A    between atoms: _337  and  _340
REMARK  138  A    between atoms: _340  and  _341
REMARK  139  A    between atoms: _344  and  _346
REMARK  140  A    between atoms: _346  and  _347
REMARK  141  A    between atoms: _349  and  _351
REMARK  142  A    between atoms: _351  and  _352
REMARK  143  A    between atoms: _355  and  _357
REMARK  144  A    between atoms: _357  and  _358
REMARK  145  A    between atoms: _357  and  _360
REMARK  146  A    between atoms: _360  and  _361
REMARK  147  A    between atoms: _366  and  _367
REMARK  148  A    between atoms: _369  and  _371
REMARK  149  A    between atoms: _371  and  _372
REMARK  150  A    between atoms: _371  and  _374
REMARK  151  A    between atoms: _374  and  _375
REMARK  152  A    between atoms: _375  and  _376
REMARK  153  A    between atoms: _379  and  _381
REMARK  154  A    between atoms: _381  and  _382
REMARK  155  A    between atoms: _381  and  _384
REMARK  156  A    between atoms: _384  and  _385
REMARK  157  A    between atoms: _388  and  _390
REMARK  158  A    between atoms: _390  and  _391
REMARK  159  A    between atoms: _394  and  _396
REMARK  160  A    between atoms: _396  and  _397
REMARK  161  A    between atoms: _396  and  _399
REMARK  162  A    between atoms: _399  and  _400
REMARK  163  A    between atoms: _400  and  _401
REMARK  164  A    between atoms: _401  and  _402
REMARK  165  A    between atoms: _411  and  _413
REMARK  166  A    between atoms: _413  and  _414
REMARK  167  A    between atoms: _413  and  _416
REMARK  168  A    between atoms: _416  and  _417
REMARK  169  A    between atoms: _420  and  _422
REMARK  170  A    between atoms: _422  and  _423
REMARK  171  A    between atoms: _422  and  _425
REMARK  172  A    between atoms: _425  and  _426
REMARK  173  A    between atoms: _436  and  _438
REMARK  174  A    between atoms: _438  and  _439
REMARK  175  A    between atoms: _438  and  _441
REMARK  176  A    between atoms: _441  and  _442
REMARK  177  A    between atoms: _447  and  _448
REMARK  178  A    between atoms: _450  and  _452
REMARK  179  A    between atoms: _452  and  _453
REMARK  180  A    between atoms: _452  and  _455
REMARK  181  A    between atoms: _455  and  _456
REMARK  182  A    between atoms: _461  and  _462
REMARK  183  A    between atoms: _464  and  _466
REMARK  184  A    between atoms: _466  and  _467
REMARK  185  A    between atoms: _466  and  _469
REMARK  186  A    between atoms: _469  and  _470
REMARK  187  A    between atoms: _470  and  _471
REMARK  188  A    between atoms: _471  and  _472
REMARK  189  A    between atoms: _472  and  _473
REMARK  190  A    between atoms: _477  and  _479
REMARK  191  A    between atoms: _479  and  _480
REMARK  192  A    between atoms: _479  and  _482
REMARK  193  A    between atoms: _482  and  _483
REMARK  194  A    between atoms: _486  and  _488
REMARK  195  A    between atoms: _488  and  _489
REMARK  196  A    between atoms: _488  and  _491
REMARK  197  A    between atoms: _494  and  _496
REMARK  198  A    between atoms: _496  and  _497
REMARK  199  A    between atoms: _496  and  _499
REMARK  200  A    between atoms: _499  and  _500
REMARK  201  A    between atoms: _503  and  _505
REMARK  202  A    between atoms: _505  and  _506
REMARK  203  A    between atoms: _505  and  _508
REMARK  204  A    between atoms: _508  and  _509
REMARK  205  A    between atoms: _511  and  _513
REMARK  206  A    between atoms: _513  and  _514
REMARK  207  A    between atoms: _516  and  _518
REMARK  208  A    between atoms: _518  and  _519
REMARK  209  A    between atoms: _518  and  _521
REMARK  210  A    between atoms: _521  and  _522
REMARK  211  A    between atoms: _525  and  _527
REMARK  212  A    between atoms: _527  and  _528
REMARK  213  A    between atoms: _527  and  _530
REMARK  214  A    between atoms: _530  and  _531
REMARK  215  A    between atoms: _534  and  _536
REMARK  216  A    between atoms: _536  and  _537
REMARK  217  A    between atoms: _536  and  _539
REMARK  218  A    between atoms: _539  and  _540
REMARK  219  A    between atoms: _545  and  _547
REMARK  220  A    between atoms: _547  and  _548
REMARK  221  A    between atoms: _547  and  _550
REMARK  222  A    between atoms: _550  and  _551
REMARK  223  A    between atoms: _554  and  _556
REMARK  224  A    between atoms: _556  and  _557
REMARK  225  A    between atoms: _556  and  _559
REMARK  226  A    between atoms: _559  and  _560
REMARK  227  A    between atoms: _560  and  _561
REMARK  228  A    between atoms: _561  and  _562
REMARK  229  A    between atoms: _571  and  _573
REMARK  230  A    between atoms: _573  and  _574
REMARK  231  A    between atoms: _573  and  _576
REMARK  232  A    between atoms: _576  and  _577
REMARK  233  A    between atoms: _580  and  _582
REMARK  234  A    between atoms: _582  and  _583
REMARK  235  A    between atoms: _585  and  _587
REMARK  236  A    between atoms: _587  and  _588
REMARK  237  A    between atoms: _587  and  _590
REMARK  238  A    between atoms: _590  and  _591
REMARK  239  A    between atoms: _591  and  _592
REMARK  240  A    between atoms: _592  and  _593
REMARK  241  A    between atoms: _602  and  _604
REMARK  242  A    between atoms: _604  and  _605
REMARK  243  A    between atoms: _604  and  _607
REMARK  244  A    between atoms: _607  and  _608
REMARK  245  A    between atoms: _608  and  _609
REMARK  246  A    between atoms: _609  and  _610
REMARK  247  A    between atoms: _610  and  _611
REMARK  248  A    between atoms: _615  and  _617
REMARK  249  A    between atoms: _617  and  _618
REMARK  250  A    between atoms: _617  and  _620
REMARK  251  A    between atoms: _620  and  _621
REMARK  252  A    between atoms: _627  and  _629
REMARK  253  A    between atoms: _629  and  _630
REMARK  254  A    between atoms: _633  and  _635
REMARK  255  A    between atoms: _635  and  _636
REMARK  256  A    between atoms: _635  and  _638
REMARK  257  A    between atoms: _638  and  _639
REMARK  258  A    between atoms: _642  and  _644
REMARK  259  A    between atoms: _644  and  _645
REMARK  260  A    between atoms: _644  and  _647
REMARK  261  A    between atoms: _647  and  _648
REMARK  262  A    between atoms: _650  and  _652
REMARK  263  A    between atoms: _652  and  _653
REMARK  264  A    between atoms: _652  and  _655
REMARK  265  A    between atoms: _655  and  _656
REMARK  266  A    between atoms: _656  and  _657
REMARK  267  A    between atoms: _662  and  _664
REMARK  268  A    between atoms: _664  and  _665
REMARK  269  A    between atoms: _664  and  _667
REMARK  270  A    between atoms: _667  and  _668
REMARK  271  A    between atoms: _670  and  _672
REMARK  272  A    between atoms: _672  and  _673
REMARK  273  A    between atoms: _672  and  _675
REMARK  274  A    between atoms: _675  and  _676
REMARK  275  A    between atoms: _679  and  _681
REMARK  276  A    between atoms: _681  and  _682
REMARK  277  A    between atoms: _684  and  _686
REMARK  278  A    between atoms: _686  and  _687
REMARK  279  A    between atoms: _686  and  _689
REMARK  280  A    between atoms: _689  and  _690
REMARK  281  A    between atoms: _693  and  _695
REMARK  282  A    between atoms: _695  and  _696
REMARK  283  A    between atoms: _695  and  _698
REMARK  284  A    between atoms: _701  and  _703
REMARK  285  A    between atoms: _703  and  _704
REMARK  286  A    between atoms: _706  and  _708
REMARK  287  A    between atoms: _708  and  _709
REMARK  288  A    between atoms: _712  and  _714
REMARK  289  A    between atoms: _714  and  _715
REMARK  290  A    between atoms: _714  and  _717
REMARK  291  A    between atoms: _720  and  _722
REMARK  292  A    between atoms: _722  and  _723
REMARK  293  A    between atoms: _722  and  _725
REMARK  294  A    between atoms: _725  and  _726
REMARK  295  A    between atoms: _726  and  _727
REMARK  296  A    between atoms: _729  and  _731
REMARK  297  A    between atoms: _731  and  _732
REMARK  298  A    between atoms: _731  and  _734
REMARK  299  A    between atoms: _734  and  _735
REMARK  300  A    between atoms: _735  and  _736
REMARK                            x       y       z     vdW  Elec       q    Type
REMARK                         _______ _______ _______ _____ _____    ______ ____
ROOT
ATOM      1  O   HOH     1      54.620   1.442   9.916  0.00  0.00    +0.000 OA
ENDROOT
TORSDOF 0
REMARK  Name = ../refined-set-2016/4gid/4gid_pocket.pdb
REMARK  300 active torsions:
REMARK  status: ('A' for Active; 'I' for Inactive)
REMARK    1  A    between atoms: _1  and  _3
REMARK    2  A    between atoms: _3  and  _4
REMARK    3  A    between atoms: _6  and  _8
REMARK    4  A    between atoms: _8  and  _9
REMARK    5  A    between atoms: _8  and  _11
REMARK    6  A    between atoms: _11  and  _12
REMARK    7  A    between atoms: _12  and  _13
REMARK    8  A    between atoms: _13  and  _14
REMARK    9  A    between atoms: _14  and  _15
REMARK   10  A    between atoms: _19  and  _21
REMARK   11  A    between atoms: _21  and  _22
REMARK   12  A    between atoms: _21  and  _24
REMARK   13  A    between atoms: _24  and  _25
REMARK   14  A    between atoms: _27  and  _29
REMARK   15  A    between atoms: _29  and  _30
REMARK   16  A    between atoms: _32  and  _34
REMARK   17  A    between atoms: _34  and  _35
REMARK   18  A    between atoms: _34  and  _37
REMARK   19  A    between atoms: _37  and  _38
REMARK   20  A    between atoms: _38  and  _39
REMARK   21  A    between atoms: _44  and  _46
REMARK   22  A    between atoms: _46  and  _47
REMARK   23  A    between atoms: _49  and  _51
REMARK   24  A    between atoms: _51  and  _52
REMARK   25  A    between atoms: _51  and  _54
REMARK   26  A    between atoms: _54  and  _55
REMARK   27  A    between atoms: _60  and  _61
REMARK   28  A    between atoms: _63  and  _65
REMARK   29  A    between atoms: _65  and  _66
REMARK   30  A    between atoms: _65  and  _68
REMARK   31  A    between atoms: _68  and  _69
REMARK   32  A    between atoms: _74  and  _75
REMARK   33  A    between atoms: _77  and  _79
REMARK   34  A    between atoms: _79  and  _80
REMARK   35  A    between atoms: _79  and  _82
REMARK   36  A    between atoms: _82  and  _83
REMARK   37  A    between atoms: _86  and  _88
REMARK   38  A    between atoms: _88  and  _89
REMARK   39  A    between atoms: _88  and  _91
REMARK   40  A    between atoms: _94  and  _96
REMARK   41  A    between atoms: _96  and  _97
REMARK   42  A    between atoms: _96  and  _99
REMARK   43  A    between atoms: _99  and  _100
REMARK   44  A    between atoms: _103  and  _105
REMARK   45  A    between atoms: _105  and  _106
REMARK   46  A    between atoms: _105  and  _108
REMARK   47  A    between atoms: _108  and  _109
REMARK   48  A    between atoms: _112  and  _114
REMARK   49  A    between atoms: _114  and  _115
REMARK   50  A    between atoms: _117  and  _119
REMARK   51  A    between atoms: _119  and  _120
REMARK   52  A    between atoms: _119  and  _122
REMARK   53  A    between atoms: _122  and  _123
REMARK   54  A    between atoms: _125  and  _127
REMARK   55  A    between atoms: _127  and  _128
REMARK   56  A    between atoms: _127  and  _130
REMARK   57  A    between atoms: _130  and  _131
REMARK   58  A    between atoms: _133  and  _135
REMARK   59  A    between atoms: _135  and  _136
REMARK   60  A    between atoms: _135  and  _138
REMARK   61  A    between atoms: _138  and  _139
REMARK   62  A    between atoms: _144  and  _146
REMARK   63  A    between atoms: _146  and  _147
REMARK   64  A    between atoms: _146  and  _149
REMARK   65  A    between atoms: _149  and  _150
REMARK   66  A    between atoms: _155  and  _156
REMARK   67  A    between atoms: _158  and  _160
REMARK   68  A    between atoms: _160  and  _161
REMARK   69  A    between atoms: _160  and  _163
REMARK   70  A    between atoms: _167  and  _168
REMARK   71  A    between atoms: _173  and  _175
REMARK   72  A    between atoms: _175  and  _176
REMARK   73  A    between atoms: _175  and  _178
REMARK   74  A    between atoms: _178  and  _179
REMARK   75  A    between atoms: _184  and  _185
REMARK   76  A    between atoms: _187  and  _189
REMARK   77  A    between atoms: _189  and  _190
REMARK   78  A    between atoms: _189  and  _192
REMARK   79  A    between atoms: _192  and  _193
REMARK   80  A    between atoms: _196  and  _198
REMARK   81  A    between atoms: _198  and  _199
REMARK   82  A    between atoms: _198  and  _201
REMARK   83  A    between atoms: _201  and  _202
REMARK   84  A    between atoms: _202  and  _203
REMARK   85  A    between atoms: _208  and  _210
REMARK   86  A    between atoms: _210  and  _211
REMARK   87  A    between atoms: _213  and  _215
REMARK   88  A    between atoms: _215  and  _216
REMARK   89  A    between atoms: _215  and  _218
REMARK   90  A    between atoms: _218  and  _219
REMARK   91  A    between atoms: _219  and  _220
REMARK   92  A    between atoms: _220  and  _221
REMARK   93  A    between atoms: _221  and  _222
REMARK   94  A    between atoms: _226  and  _228
REMARK   95  A    between atoms: _228  and  _229
REMARK   96  A    between atoms: _228  and  _231
REMARK   97  A    between atoms: _231  and  _232
REMARK   98  A    between atoms: _242  and  _244
REMARK   99  A    between atoms: _244  and  _245
REMARK  100  A    between atoms: _244  and  _247
REMARK  101  A    between atoms: _247  and  _248
REMARK  102  A    between atoms: _251  and  _253
REMARK  103  A    between atoms: _253  and  _254
REMARK  104  A    between atoms: _253  and  _256
REMARK  105  A    between atoms: _256  and  _257
REMARK  106  A    between atoms: _257  and  _258
REMARK  107  A    between atoms: _258  and  _259
REMARK  108  A    between atoms: _259  and  _260
REMARK  109  A    between atoms: _264  and  _266
REMARK  110  A    between atoms: _266  and  _267
REMARK  111  A    between atoms: _266  and  _269
REMARK  112  A    between atoms: _269  and  _270
REMARK  113  A    between atoms: _276  and  _278
REMARK  114  A    between atoms: _278  and  _279
REMARK  115  A    between atoms: _278  and  _281
REMARK  116  A    between atoms: _281  and  _282
REMARK  117  A    between atoms: _288  and  _290
REMARK  118  A    between atoms: _290  and  _291
REMARK  119  A    between atoms: _290  and  _293
REMARK  120  A    between atoms: _293  and  _294
REMARK  121  A    between atoms: _297  and  _299
REMARK  122  A    between atoms: _299  and  _300
REMARK  123  A    between atoms: _299  and  _302
REMARK  124  A    between atoms: _302  and  _303
REMARK  125  A    between atoms: _305  and  _307
REMARK  126  A    between atoms: _307  and  _308
REMARK  127  A    between atoms: _307  and  _310
REMARK  128  A    between atoms: _310  and  _311
REMARK  129  A    between atoms: _321  and  _323
REMARK  130  A    between atoms: _323  and  _324
REMARK  131  A    between atoms: _326  and  _328
REMARK  132  A    between atoms: _328  and  _329
REMARK  133  A    between atoms: _328  and  _331
REMARK  134  A    between atoms: _331  and  _332
REMARK  135  A    between atoms: _335  and  _337
REMARK  136  A    between atoms: _337  and  _338
REMARK  137  A    between atoms: _337  and  _340
REMARK  138  A    between atoms: _340  and  _341
REMARK  139  A    between atoms: _344  and  _346
REMARK  140  A    between atoms: _346  and  _347
REMARK  141  A    between atoms: _349  and  _351
REMARK  142  A    between atoms: _351  and  _352
REMARK  143  A    between atoms: _355  and  _357
REMARK  144  A    between atoms: _357  and  _358
REMARK  145  A    between atoms: _357  and  _360
REMARK  146  A    between atoms: _360  and  _361
REMARK  147  A    between atoms: _366  and  _367
REMARK  148  A    between atoms: _369  and  _371
REMARK  149  A    between atoms: _371  and  _372
REMARK  150  A    between atoms: _371  and  _374
REMARK  151  A    between atoms: _374  and  _375
REMARK  152  A    between atoms: _375  and  _376
REMARK  153  A    between atoms: _379  and  _381
REMARK  154  A    between atoms: _381  and  _382
REMARK  155  A    between atoms: _381  and  _384
REMARK  156  A    between atoms: _384  and  _385
REMARK  157  A    between atoms: _388  and  _390
REMARK  158  A    between atoms: _390  and  _391
REMARK  159  A    between atoms: _394  and  _396
REMARK  160  A    between atoms: _396  and  _397
REMARK  161  A    between atoms: _396  and  _399
REMARK  162  A    between atoms: _399  and  _400
REMARK  163  A    between atoms: _400  and  _401
REMARK  164  A    between atoms: _401  and  _402
REMARK  165  A    between atoms: _411  and  _413
REMARK  166  A    between atoms: _413  and  _414
REMARK  167  A    between atoms: _413  and  _416
REMARK  168  A    between atoms: _416  and  _417
REMARK  169  A    between atoms: _420  and  _422
REMARK  170  A    between atoms: _422  and  _423
REMARK  171  A    between atoms: _422  and  _425
REMARK  172  A    between atoms: _425  and  _426
REMARK  173  A    between atoms: _436  and  _438
REMARK  174  A    between atoms: _438  and  _439
REMARK  175  A    between atoms: _438  and  _441
REMARK  176  A    between atoms: _441  and  _442
REMARK  177  A    between atoms: _447  and  _448
REMARK  178  A    between atoms: _450  and  _452
REMARK  179  A    between atoms: _452  and  _453
REMARK  180  A    between atoms: _452  and  _455
REMARK  181  A    between atoms: _455  and  _456
REMARK  182  A    between atoms: _461  and  _462
REMARK  183  A    between atoms: _464  and  _466
REMARK  184  A    between atoms: _466  and  _467
REMARK  185  A    between atoms: _466  and  _469
REMARK  186  A    between atoms: _469  and  _470
REMARK  187  A    between atoms: _470  and  _471
REMARK  188  A    between atoms: _471  and  _472
REMARK  189  A    between atoms: _472  and  _473
REMARK  190  A    between atoms: _477  and  _479
REMARK  191  A    between atoms: _479  and  _480
REMARK  192  A    between atoms: _479  and  _482
REMARK  193  A    between atoms: _482  and  _483
REMARK  194  A    between atoms: _486  and  _488
REMARK  195  A    between atoms: _488  and  _489
REMARK  196  A    between atoms: _488  and  _491
REMARK  197  A    between atoms: _494  and  _496
REMARK  198  A    between atoms: _496  and  _497
REMARK  199  A    between atoms: _496  and  _499
REMARK  200  A    between atoms: _499  and  _500
REMARK  201  A    between atoms: _503  and  _505
REMARK  202  A    between atoms: _505  and  _506
REMARK  203  A    between atoms: _505  and  _508
REMARK  204  A    between atoms: _508  and  _509
REMARK  205  A    between atoms: _511  and  _513
REMARK  206  A    between atoms: _513  and  _514
REMARK  207  A    between atoms: _516  and  _518
REMARK  208  A    between atoms: _518  and  _519
REMARK  209  A    between atoms: _518  and  _521
REMARK  210  A    between atoms: _521  and  _522
REMARK  211  A    between atoms: _525  and  _527
REMARK  212  A    between atoms: _527  and  _528
REMARK  213  A    between atoms: _527  and  _530
REMARK  214  A    between atoms: _530  and  _531
REMARK  215  A    between atoms: _534  and  _536
REMARK  216  A    between atoms: _536  and  _537
REMARK  217  A    between atoms: _536  and  _539
REMARK  218  A    between atoms: _539  and  _540
REMARK  219  A    between atoms: _545  and  _547
REMARK  220  A    between atoms: _547  and  _548
REMARK  221  A    between atoms: _547  and  _550
REMARK  222  A    between atoms: _550  and  _551
REMARK  223  A    between atoms: _554  and  _556
REMARK  224  A    between atoms: _556  and  _557
REMARK  225  A    between atoms: _556  and  _559
REMARK  226  A    between atoms: _559  and  _560
REMARK  227  A    between atoms: _560  and  _561
REMARK  228  A    between atoms: _561  and  _562
REMARK  229  A    between atoms: _571  and  _573
REMARK  230  A    between atoms: _573  and  _574
REMARK  231  A    between atoms: _573  and  _576
REMARK  232  A    between atoms: _576  and  _577
REMARK  233  A    between atoms: _580  and  _582
REMARK  234  A    between atoms: _582  and  _583
REMARK  235  A    between atoms: _585  and  _587
REMARK  236  A    between atoms: _587  and  _588
REMARK  237  A    between atoms: _587  and  _590
REMARK  238  A    between atoms: _590  and  _591
REMARK  239  A    between atoms: _591  and  _592
REMARK  240  A    between atoms: _592  and  _593
REMARK  241  A    between atoms: _602  and  _604
REMARK  242  A    between atoms: _604  and  _605
REMARK  243  A    between atoms: _604  and  _607
REMARK  244  A    between atoms: _607  and  _608
REMARK  245  A    between atoms: _608  and  _609
REMARK  246  A    between atoms: _609  and  _610
REMARK  247  A    between atoms: _610  and  _611
REMARK  248  A    between atoms: _615  and  _617
REMARK  249  A    between atoms: _617  and  _618
REMARK  250  A    between atoms: _617  and  _620
REMARK  251  A    between atoms: _620  and  _621
REMARK  252  A    between atoms: _627  and  _629
REMARK  253  A    between atoms: _629  and  _630
REMARK  254  A    between atoms: _633  and  _635
REMARK  255  A    between atoms: _635  and  _636
REMARK  256  A    between atoms: _635  and  _638
REMARK  257  A    between atoms: _638  and  _639
REMARK  258  A    between atoms: _642  and  _644
REMARK  259  A    between atoms: _644  and  _645
REMARK  260  A    between atoms: _644  and  _647
REMARK  261  A    between atoms: _647  and  _648
REMARK  262  A    between atoms: _650  and  _652
REMARK  263  A    between atoms: _652  and  _653
REMARK  264  A    between atoms: _652  and  _655
REMARK  265  A    between atoms: _655  and  _656
REMARK  266  A    between atoms: _656  and  _657
REMARK  267  A    between atoms: _662  and  _664
REMARK  268  A    between atoms: _664  and  _665
REMARK  269  A    between atoms: _664  and  _667
REMARK  270  A    between atoms: _667  and  _668
REMARK  271  A    between atoms: _670  and  _672
REMARK  272  A    between atoms: _672  and  _673
REMARK  273  A    between atoms: _672  and  _675
REMARK  274  A    between atoms: _675  and  _676
REMARK  275  A    between atoms: _679  and  _681
REMARK  276  A    between atoms: _681  and  _682
REMARK  277  A    between atoms: _684  and  _686
REMARK  278  A    between atoms: _686  and  _687
REMARK  279  A    between atoms: _686  and  _689
REMARK  280  A    between atoms: _689  and  _690
REMARK  281  A    between atoms: _693  and  _695
REMARK  282  A    between atoms: _695  and  _696
REMARK  283  A    between atoms: _695  and  _698
REMARK  284  A    between atoms: _701  and  _703
REMARK  285  A    between atoms: _703  and  _704
REMARK  286  A    between atoms: _706  and  _708
REMARK  287  A    between atoms: _708  and  _709
REMARK  288  A    between atoms: _712  and  _714
REMARK  289  A    between atoms: _714  and  _715
REMARK  290  A    between atoms: _714  and  _717
REMARK  291  A    between atoms: _720  and  _722
REMARK  292  A    between atoms: _722  and  _723
REMARK  293  A    between atoms: _722  and  _725
REMARK  294  A    between atoms: _725  and  _726
REMARK  295  A    between atoms: _726  and  _727
REMARK  296  A    between atoms: _729  and  _731
REMARK  297  A    between atoms: _731  and  _732
REMARK  298  A    between atoms: _731  and  _734
REMARK  299  A    between atoms: _734  and  _735
REMARK  300  A    between atoms: _735  and  _736
REMARK                            x       y       z     vdW  Elec       q    Type
REMARK                         _______ _______ _______ _____ _____    ______ ____
ROOT
ATOM      1  O   HOH     1      31.813   1.875  19.656  0.00  0.00    +0.000 OA
ENDROOT
TORSDOF 0
REMARK  Name = ../refined-set-2016/4gid/4gid_pocket.pdb
REMARK  300 active torsions:
REMARK  status: ('A' for Active; 'I' for Inactive)
REMARK    1  A    between atoms: _1  and  _3
REMARK    2  A    between atoms: _3  and  _4
REMARK    3  A    between atoms: _6  and  _8
REMARK    4  A    between atoms: _8  and  _9
REMARK    5  A    between atoms: _8  and  _11
REMARK    6  A    between atoms: _11  and  _12
REMARK    7  A    between atoms: _12  and  _13
REMARK    8  A    between atoms: _13  and  _14
REMARK    9  A    between atoms: _14  and  _15
REMARK   10  A    between atoms: _19  and  _21
REMARK   11  A    between atoms: _21  and  _22
REMARK   12  A    between atoms: _21  and  _24
REMARK   13  A    between atoms: _24  and  _25
REMARK   14  A    between atoms: _27  and  _29
REMARK   15  A    between atoms: _29  and  _30
REMARK   16  A    between atoms: _32  and  _34
REMARK   17  A    between atoms: _34  and  _35
REMARK   18  A    between atoms: _34  and  _37
REMARK   19  A    between atoms: _37  and  _38
REMARK   20  A    between atoms: _38  and  _39
REMARK   21  A    between atoms: _44  and  _46
REMARK   22  A    between atoms: _46  and  _47
REMARK   23  A    between atoms: _49  and  _51
REMARK   24  A    between atoms: _51  and  _52
REMARK   25  A    between atoms: _51  and  _54
REMARK   26  A    between atoms: _54  and  _55
REMARK   27  A    between atoms: _60  and  _61
REMARK   28  A    between atoms: _63  and  _65
REMARK   29  A    between atoms: _65  and  _66
REMARK   30  A    between atoms: _65  and  _68
REMARK   31  A    between atoms: _68  and  _69
REMARK   32  A    between atoms: _74  and  _75
REMARK   33  A    between atoms: _77  and  _79
REMARK   34  A    between atoms: _79  and  _80
REMARK   35  A    between atoms: _79  and  _82
REMARK   36  A    between atoms: _82  and  _83
REMARK   37  A    between atoms: _86  and  _88
REMARK   38  A    between atoms: _88  and  _89
REMARK   39  A    between atoms: _88  and  _91
REMARK   40  A    between atoms: _94  and  _96
REMARK   41  A    between atoms: _96  and  _97
REMARK   42  A    between atoms: _96  and  _99
REMARK   43  A    between atoms: _99  and  _100
REMARK   44  A    between atoms: _103  and  _105
REMARK   45  A    between atoms: _105  and  _106
REMARK   46  A    between atoms: _105  and  _108
REMARK   47  A    between atoms: _108  and  _109
REMARK   48  A    between atoms: _112  and  _114
REMARK   49  A    between atoms: _114  and  _115
REMARK   50  A    between atoms: _117  and  _119
REMARK   51  A    between atoms: _119  and  _120
REMARK   52  A    between atoms: _119  and  _122
REMARK   53  A    between atoms: _122  and  _123
REMARK   54  A    between atoms: _125  and  _127
REMARK   55  A    between atoms: _127  and  _128
REMARK   56  A    between atoms: _127  and  _130
REMARK   57  A    between atoms: _130  and  _131
REMARK   58  A    between atoms: _133  and  _135
REMARK   59  A    between atoms: _135  and  _136
REMARK   60  A    between atoms: _135  and  _138
REMARK   61  A    between atoms: _138  and  _139
REMARK   62  A    between atoms: _144  and  _146
REMARK   63  A    between atoms: _146  and  _147
REMARK   64  A    between atoms: _146  and  _149
REMARK   65  A    between atoms: _149  and  _150
REMARK   66  A    between atoms: _155  and  _156
REMARK   67  A    between atoms: _158  and  _160
REMARK   68  A    between atoms: _160  and  _161
REMARK   69  A    between atoms: _160  and  _163
REMARK   70  A    between atoms: _167  and  _168
REMARK   71  A    between atoms: _173  and  _175
REMARK   72  A    between atoms: _175  and  _176
REMARK   73  A    between atoms: _175  and  _178
REMARK   74  A    between atoms: _178  and  _179
REMARK   75  A    between atoms: _184  and  _185
REMARK   76  A    between atoms: _187  and  _189
REMARK   77  A    between atoms: _189  and  _190
REMARK   78  A    between atoms: _189  and  _192
REMARK   79  A    between atoms: _192  and  _193
REMARK   80  A    between atoms: _196  and  _198
REMARK   81  A    between atoms: _198  and  _199
REMARK   82  A    between atoms: _198  and  _201
REMARK   83  A    between atoms: _201  and  _202
REMARK   84  A    between atoms: _202  and  _203
REMARK   85  A    between atoms: _208  and  _210
REMARK   86  A    between atoms: _210  and  _211
REMARK   87  A    between atoms: _213  and  _215
REMARK   88  A    between atoms: _215  and  _216
REMARK   89  A    between atoms: _215  and  _218
REMARK   90  A    between atoms: _218  and  _219
REMARK   91  A    between atoms: _219  and  _220
REMARK   92  A    between atoms: _220  and  _221
REMARK   93  A    between atoms: _221  and  _222
REMARK   94  A    between atoms: _226  and  _228
REMARK   95  A    between atoms: _228  and  _229
REMARK   96  A    between atoms: _228  and  _231
REMARK   97  A    between atoms: _231  and  _232
REMARK   98  A    between atoms: _242  and  _244
REMARK   99  A    between atoms: _244  and  _245
REMARK  100  A    between atoms: _244  and  _247
REMARK  101  A    between atoms: _247  and  _248
REMARK  102  A    between atoms: _251  and  _253
REMARK  103  A    between atoms: _253  and  _254
REMARK  104  A    between atoms: _253  and  _256
REMARK  105  A    between atoms: _256  and  _257
REMARK  106  A    between atoms: _257  and  _258
REMARK  107  A    between atoms: _258  and  _259
REMARK  108  A    between atoms: _259  and  _260
REMARK  109  A    between atoms: _264  and  _266
REMARK  110  A    between atoms: _266  and  _267
REMARK  111  A    between atoms: _266  and  _269
REMARK  112  A    between atoms: _269  and  _270
REMARK  113  A    between atoms: _276  and  _278
REMARK  114  A    between atoms: _278  and  _279
REMARK  115  A    between atoms: _278  and  _281
REMARK  116  A    between atoms: _281  and  _282
REMARK  117  A    between atoms: _288  and  _290
REMARK  118  A    between atoms: _290  and  _291
REMARK  119  A    between atoms: _290  and  _293
REMARK  120  A    between atoms: _293  and  _294
REMARK  121  A    between atoms: _297  and  _299
REMARK  122  A    between atoms: _299  and  _300
REMARK  123  A    between atoms: _299  and  _302
REMARK  124  A    between atoms: _302  and  _303
REMARK  125  A    between atoms: _305  and  _307
REMARK  126  A    between atoms: _307  and  _308
REMARK  127  A    between atoms: _307  and  _310
REMARK  128  A    between atoms: _310  and  _311
REMARK  129  A    between atoms: _321  and  _323
REMARK  130  A    between atoms: _323  and  _324
REMARK  131  A    between atoms: _326  and  _328
REMARK  132  A    between atoms: _328  and  _329
REMARK  133  A    between atoms: _328  and  _331
REMARK  134  A    between atoms: _331  and  _332
REMARK  135  A    between atoms: _335  and  _337
REMARK  136  A    between atoms: _337  and  _338
REMARK  137  A    between atoms: _337  and  _340
REMARK  138  A    between atoms: _340  and  _341
REMARK  139  A    between atoms: _344  and  _346
REMARK  140  A    between atoms: _346  and  _347
REMARK  141  A    between atoms: _349  and  _351
REMARK  142  A    between atoms: _351  and  _352
REMARK  143  A    between atoms: _355  and  _357
REMARK  144  A    between atoms: _357  and  _358
REMARK  145  A    between atoms: _357  and  _360
REMARK  146  A    between atoms: _360  and  _361
REMARK  147  A    between atoms: _366  and  _367
REMARK  148  A    between atoms: _369  and  _371
REMARK  149  A    between atoms: _371  and  _372
REMARK  150  A    between atoms: _371  and  _374
REMARK  151  A    between atoms: _374  and  _375
REMARK  152  A    between atoms: _375  and  _376
REMARK  153  A    between atoms: _379  and  _381
REMARK  154  A    between atoms: _381  and  _382
REMARK  155  A    between atoms: _381  and  _384
REMARK  156  A    between atoms: _384  and  _385
REMARK  157  A    between atoms: _388  and  _390
REMARK  158  A    between atoms: _390  and  _391
REMARK  159  A    between atoms: _394  and  _396
REMARK  160  A    between atoms: _396  and  _397
REMARK  161  A    between atoms: _396  and  _399
REMARK  162  A    between atoms: _399  and  _400
REMARK  163  A    between atoms: _400  and  _401
REMARK  164  A    between atoms: _401  and  _402
REMARK  165  A    between atoms: _411  and  _413
REMARK  166  A    between atoms: _413  and  _414
REMARK  167  A    between atoms: _413  and  _416
REMARK  168  A    between atoms: _416  and  _417
REMARK  169  A    between atoms: _420  and  _422
REMARK  170  A    between atoms: _422  and  _423
REMARK  171  A    between atoms: _422  and  _425
REMARK  172  A    between atoms: _425  and  _426
REMARK  173  A    between atoms: _436  and  _438
REMARK  174  A    between atoms: _438  and  _439
REMARK  175  A    between atoms: _438  and  _441
REMARK  176  A    between atoms: _441  and  _442
REMARK  177  A    between atoms: _447  and  _448
REMARK  178  A    between atoms: _450  and  _452
REMARK  179  A    between atoms: _452  and  _453
REMARK  180  A    between atoms: _452  and  _455
REMARK  181  A    between atoms: _455  and  _456
REMARK  182  A    between atoms: _461  and  _462
REMARK  183  A    between atoms: _464  and  _466
REMARK  184  A    between atoms: _466  and  _467
REMARK  185  A    between atoms: _466  and  _469
REMARK  186  A    between atoms: _469  and  _470
REMARK  187  A    between atoms: _470  and  _471
REMARK  188  A    between atoms: _471  and  _472
REMARK  189  A    between atoms: _472  and  _473
REMARK  190  A    between atoms: _477  and  _479
REMARK  191  A    between atoms: _479  and  _480
REMARK  192  A    between atoms: _479  and  _482
REMARK  193  A    between atoms: _482  and  _483
REMARK  194  A    between atoms: _486  and  _488
REMARK  195  A    between atoms: _488  and  _489
REMARK  196  A    between atoms: _488  and  _491
REMARK  197  A    between atoms: _494  and  _496
REMARK  198  A    between atoms: _496  and  _497
REMARK  199  A    between atoms: _496  and  _499
REMARK  200  A    between atoms: _499  and  _500
REMARK  201  A    between atoms: _503  and  _505
REMARK  202  A    between atoms: _505  and  _506
REMARK  203  A    between atoms: _505  and  _508
REMARK  204  A    between atoms: _508  and  _509
REMARK  205  A    between atoms: _511  and  _513
REMARK  206  A    between atoms: _513  and  _514
REMARK  207  A    between atoms: _516  and  _518
REMARK  208  A    between atoms: _518  and  _519
REMARK  209  A    between atoms: _518  and  _521
REMARK  210  A    between atoms: _521  and  _522
REMARK  211  A    between atoms: _525  and  _527
REMARK  212  A    between atoms: _527  and  _528
REMARK  213  A    between atoms: _527  and  _530
REMARK  214  A    between atoms: _530  and  _531
REMARK  215  A    between atoms: _534  and  _536
REMARK  216  A    between atoms: _536  and  _537
REMARK  217  A    between atoms: _536  and  _539
REMARK  218  A    between atoms: _539  and  _540
REMARK  219  A    between atoms: _545  and  _547
REMARK  220  A    between atoms: _547  and  _548
REMARK  221  A    between atoms: _547  and  _550
REMARK  222  A    between atoms: _550  and  _551
REMARK  223  A    between atoms: _554  and  _556
REMARK  224  A    between atoms: _556  and  _557
REMARK  225  A    between atoms: _556  and  _559
REMARK  226  A    between atoms: _559  and  _560
REMARK  227  A    between atoms: _560  and  _561
REMARK  228  A    between atoms: _561  and  _562
REMARK  229  A    between atoms: _571  and  _573
REMARK  230  A    between atoms: _573  and  _574
REMARK  231  A    between atoms: _573  and  _576
REMARK  232  A    between atoms: _576  and  _577
REMARK  233  A    between atoms: _580  and  _582
REMARK  234  A    between atoms: _582  and  _583
REMARK  235  A    between atoms: _585  and  _587
REMARK  236  A    between atoms: _587  and  _588
REMARK  237  A    between atoms: _587  and  _590
REMARK  238  A    between atoms: _590  and  _591
REMARK  239  A    between atoms: _591  and  _592
REMARK  240  A    between atoms: _592  and  _593
REMARK  241  A    between atoms: _602  and  _604
REMARK  242  A    between atoms: _604  and  _605
REMARK  243  A    between atoms: _604  and  _607
REMARK  244  A    between atoms: _607  and  _608
REMARK  245  A    between atoms: _608  and  _609
REMARK  246  A    between atoms: _609  and  _610
REMARK  247  A    between atoms: _610  and  _611
REMARK  248  A    between atoms: _615  and  _617
REMARK  249  A    between atoms: _617  and  _618
REMARK  250  A    between atoms: _617  and  _620
REMARK  251  A    between atoms: _620  and  _621
REMARK  252  A    between atoms: _627  and  _629
REMARK  253  A    between atoms: _629  and  _630
REMARK  254  A    between atoms: _633  and  _635
REMARK  255  A    between atoms: _635  and  _636
REMARK  256  A    between atoms: _635  and  _638
REMARK  257  A    between atoms: _638  and  _639
REMARK  258  A    between atoms: _642  and  _644
REMARK  259  A    between atoms: _644  and  _645
REMARK  260  A    between atoms: _644  and  _647
REMARK  261  A    between atoms: _647  and  _648
REMARK  262  A    between atoms: _650  and  _652
REMARK  263  A    between atoms: _652  and  _653
REMARK  264  A    between atoms: _652  and  _655
REMARK  265  A    between atoms: _655  and  _656
REMARK  266  A    between atoms: _656  and  _657
REMARK  267  A    between atoms: _662  and  _664
REMARK  268  A    between atoms: _664  and  _665
REMARK  269  A    between atoms: _664  and  _667
REMARK  270  A    between atoms: _667  and  _668
REMARK  271  A    between atoms: _670  and  _672
REMARK  272  A    between atoms: _672  and  _673
REMARK  273  A    between atoms: _672  and  _675
REMARK  274  A    between atoms: _675  and  _676
REMARK  275  A    between atoms: _679  and  _681
REMARK  276  A    between atoms: _681  and  _682
REMARK  277  A    between atoms: _684  and  _686
REMARK  278  A    between atoms: _686  and  _687
REMARK  279  A    between atoms: _686  and  _689
REMARK  280  A    between atoms: _689  and  _690
REMARK  281  A    between atoms: _693  and  _695
REMARK  282  A    between atoms: _695  and  _696
REMARK  283  A    between atoms: _695  and  _698
REMARK  284  A    between atoms: _701  and  _703
REMARK  285  A    between atoms: _703  and  _704
REMARK  286  A    between atoms: _706  and  _708
REMARK  287  A    between atoms: _708  and  _709
REMARK  288  A    between atoms: _712  and  _714
REMARK  289  A    between atoms: _714  and  _715
REMARK  290  A    between atoms: _714  and  _717
REMARK  291  A    between atoms: _720  and  _722
REMARK  292  A    between atoms: _722  and  _723
REMARK  293  A    between atoms: _722  and  _725
REMARK  294  A    between atoms: _725  and  _726
REMARK  295  A    between atoms: _726  and  _727
REMARK  296  A    between atoms: _729  and  _731
REMARK  297  A    between atoms: _731  and  _732
REMARK  298  A    between atoms: _731  and  _734
REMARK  299  A    between atoms: _734  and  _735
REMARK  300  A    between atoms: _735  and  _736
REMARK                            x       y       z     vdW  Elec       q    Type
REMARK                         _______ _______ _______ _____ _____    ______ ____
ROOT
ATOM      1  O   HOH     1      52.201  -2.006  12.120  0.00  0.00    +0.000 OA
ENDROOT
TORSDOF 0
REMARK  Name = ../refined-set-2016/4gid/4gid_pocket.pdb
REMARK  300 active torsions:
REMARK  status: ('A' for Active; 'I' for Inactive)
REMARK    1  A    between atoms: _1  and  _3
REMARK    2  A    between atoms: _3  and  _4
REMARK    3  A    between atoms: _6  and  _8
REMARK    4  A    between atoms: _8  and  _9
REMARK    5  A    between atoms: _8  and  _11
REMARK    6  A    between atoms: _11  and  _12
REMARK    7  A    between atoms: _12  and  _13
REMARK    8  A    between atoms: _13  and  _14
REMARK    9  A    between atoms: _14  and  _15
REMARK   10  A    between atoms: _19  and  _21
REMARK   11  A    between atoms: _21  and  _22
REMARK   12  A    between atoms: _21  and  _24
REMARK   13  A    between atoms: _24  and  _25
REMARK   14  A    between atoms: _27  and  _29
REMARK   15  A    between atoms: _29  and  _30
REMARK   16  A    between atoms: _32  and  _34
REMARK   17  A    between atoms: _34  and  _35
REMARK   18  A    between atoms: _34  and  _37
REMARK   19  A    between atoms: _37  and  _38
REMARK   20  A    between atoms: _38  and  _39
REMARK   21  A    between atoms: _44  and  _46
REMARK   22  A    between atoms: _46  and  _47
REMARK   23  A    between atoms: _49  and  _51
REMARK   24  A    between atoms: _51  and  _52
REMARK   25  A    between atoms: _51  and  _54
REMARK   26  A    between atoms: _54  and  _55
REMARK   27  A    between atoms: _60  and  _61
REMARK   28  A    between atoms: _63  and  _65
REMARK   29  A    between atoms: _65  and  _66
REMARK   30  A    between atoms: _65  and  _68
REMARK   31  A    between atoms: _68  and  _69
REMARK   32  A    between atoms: _74  and  _75
REMARK   33  A    between atoms: _77  and  _79
REMARK   34  A    between atoms: _79  and  _80
REMARK   35  A    between atoms: _79  and  _82
REMARK   36  A    between atoms: _82  and  _83
REMARK   37  A    between atoms: _86  and  _88
REMARK   38  A    between atoms: _88  and  _89
REMARK   39  A    between atoms: _88  and  _91
REMARK   40  A    between atoms: _94  and  _96
REMARK   41  A    between atoms: _96  and  _97
REMARK   42  A    between atoms: _96  and  _99
REMARK   43  A    between atoms: _99  and  _100
REMARK   44  A    between atoms: _103  and  _105
REMARK   45  A    between atoms: _105  and  _106
REMARK   46  A    between atoms: _105  and  _108
REMARK   47  A    between atoms: _108  and  _109
REMARK   48  A    between atoms: _112  and  _114
REMARK   49  A    between atoms: _114  and  _115
REMARK   50  A    between atoms: _117  and  _119
REMARK   51  A    between atoms: _119  and  _120
REMARK   52  A    between atoms: _119  and  _122
REMARK   53  A    between atoms: _122  and  _123
REMARK   54  A    between atoms: _125  and  _127
REMARK   55  A    between atoms: _127  and  _128
REMARK   56  A    between atoms: _127  and  _130
REMARK   57  A    between atoms: _130  and  _131
REMARK   58  A    between atoms: _133  and  _135
REMARK   59  A    between atoms: _135  and  _136
REMARK   60  A    between atoms: _135  and  _138
REMARK   61  A    between atoms: _138  and  _139
REMARK   62  A    between atoms: _144  and  _146
REMARK   63  A    between atoms: _146  and  _147
REMARK   64  A    between atoms: _146  and  _149
REMARK   65  A    between atoms: _149  and  _150
REMARK   66  A    between atoms: _155  and  _156
REMARK   67  A    between atoms: _158  and  _160
REMARK   68  A    between atoms: _160  and  _161
REMARK   69  A    between atoms: _160  and  _163
REMARK   70  A    between atoms: _167  and  _168
REMARK   71  A    between atoms: _173  and  _175
REMARK   72  A    between atoms: _175  and  _176
REMARK   73  A    between atoms: _175  and  _178
REMARK   74  A    between atoms: _178  and  _179
REMARK   75  A    between atoms: _184  and  _185
REMARK   76  A    between atoms: _187  and  _189
REMARK   77  A    between atoms: _189  and  _190
REMARK   78  A    between atoms: _189  and  _192
REMARK   79  A    between atoms: _192  and  _193
REMARK   80  A    between atoms: _196  and  _198
REMARK   81  A    between atoms: _198  and  _199
REMARK   82  A    between atoms: _198  and  _201
REMARK   83  A    between atoms: _201  and  _202
REMARK   84  A    between atoms: _202  and  _203
REMARK   85  A    between atoms: _208  and  _210
REMARK   86  A    between atoms: _210  and  _211
REMARK   87  A    between atoms: _213  and  _215
REMARK   88  A    between atoms: _215  and  _216
REMARK   89  A    between atoms: _215  and  _218
REMARK   90  A    between atoms: _218  and  _219
REMARK   91  A    between atoms: _219  and  _220
REMARK   92  A    between atoms: _220  and  _221
REMARK   93  A    between atoms: _221  and  _222
REMARK   94  A    between atoms: _226  and  _228
REMARK   95  A    between atoms: _228  and  _229
REMARK   96  A    between atoms: _228  and  _231
REMARK   97  A    between atoms: _231  and  _232
REMARK   98  A    between atoms: _242  and  _244
REMARK   99  A    between atoms: _244  and  _245
REMARK  100  A    between atoms: _244  and  _247
REMARK  101  A    between atoms: _247  and  _248
REMARK  102  A    between atoms: _251  and  _253
REMARK  103  A    between atoms: _253  and  _254
REMARK  104  A    between atoms: _253  and  _256
REMARK  105  A    between atoms: _256  and  _257
REMARK  106  A    between atoms: _257  and  _258
REMARK  107  A    between atoms: _258  and  _259
REMARK  108  A    between atoms: _259  and  _260
REMARK  109  A    between atoms: _264  and  _266
REMARK  110  A    between atoms: _266  and  _267
REMARK  111  A    between atoms: _266  and  _269
REMARK  112  A    between atoms: _269  and  _270
REMARK  113  A    between atoms: _276  and  _278
REMARK  114  A    between atoms: _278  and  _279
REMARK  115  A    between atoms: _278  and  _281
REMARK  116  A    between atoms: _281  and  _282
REMARK  117  A    between atoms: _288  and  _290
REMARK  118  A    between atoms: _290  and  _291
REMARK  119  A    between atoms: _290  and  _293
REMARK  120  A    between atoms: _293  and  _294
REMARK  121  A    between atoms: _297  and  _299
REMARK  122  A    between atoms: _299  and  _300
REMARK  123  A    between atoms: _299  and  _302
REMARK  124  A    between atoms: _302  and  _303
REMARK  125  A    between atoms: _305  and  _307
REMARK  126  A    between atoms: _307  and  _308
REMARK  127  A    between atoms: _307  and  _310
REMARK  128  A    between atoms: _310  and  _311
REMARK  129  A    between atoms: _321  and  _323
REMARK  130  A    between atoms: _323  and  _324
REMARK  131  A    between atoms: _326  and  _328
REMARK  132  A    between atoms: _328  and  _329
REMARK  133  A    between atoms: _328  and  _331
REMARK  134  A    between atoms: _331  and  _332
REMARK  135  A    between atoms: _335  and  _337
REMARK  136  A    between atoms: _337  and  _338
REMARK  137  A    between atoms: _337  and  _340
REMARK  138  A    between atoms: _340  and  _341
REMARK  139  A    between atoms: _344  and  _346
REMARK  140  A    between atoms: _346  and  _347
REMARK  141  A    between atoms: _349  and  _351
REMARK  142  A    between atoms: _351  and  _352
REMARK  143  A    between atoms: _355  and  _357
REMARK  144  A    between atoms: _357  and  _358
REMARK  145  A    between atoms: _357  and  _360
REMARK  146  A    between atoms: _360  and  _361
REMARK  147  A    between atoms: _366  and  _367
REMARK  148  A    between atoms: _369  and  _371
REMARK  149  A    between atoms: _371  and  _372
REMARK  150  A    between atoms: _371  and  _374
REMARK  151  A    between atoms: _374  and  _375
REMARK  152  A    between atoms: _375  and  _376
REMARK  153  A    between atoms: _379  and  _381
REMARK  154  A    between atoms: _381  and  _382
REMARK  155  A    between atoms: _381  and  _384
REMARK  156  A    between atoms: _384  and  _385
REMARK  157  A    between atoms: _388  and  _390
REMARK  158  A    between atoms: _390  and  _391
REMARK  159  A    between atoms: _394  and  _396
REMARK  160  A    between atoms: _396  and  _397
REMARK  161  A    between atoms: _396  and  _399
REMARK  162  A    between atoms: _399  and  _400
REMARK  163  A    between atoms: _400  and  _401
REMARK  164  A    between atoms: _401  and  _402
REMARK  165  A    between atoms: _411  and  _413
REMARK  166  A    between atoms: _413  and  _414
REMARK  167  A    between atoms: _413  and  _416
REMARK  168  A    between atoms: _416  and  _417
REMARK  169  A    between atoms: _420  and  _422
REMARK  170  A    between atoms: _422  and  _423
REMARK  171  A    between atoms: _422  and  _425
REMARK  172  A    between atoms: _425  and  _426
REMARK  173  A    between atoms: _436  and  _438
REMARK  174  A    between atoms: _438  and  _439
REMARK  175  A    between atoms: _438  and  _441
REMARK  176  A    between atoms: _441  and  _442
REMARK  177  A    between atoms: _447  and  _448
REMARK  178  A    between atoms: _450  and  _452
REMARK  179  A    between atoms: _452  and  _453
REMARK  180  A    between atoms: _452  and  _455
REMARK  181  A    between atoms: _455  and  _456
REMARK  182  A    between atoms: _461  and  _462
REMARK  183  A    between atoms: _464  and  _466
REMARK  184  A    between atoms: _466  and  _467
REMARK  185  A    between atoms: _466  and  _469
REMARK  186  A    between atoms: _469  and  _470
REMARK  187  A    between atoms: _470  and  _471
REMARK  188  A    between atoms: _471  and  _472
REMARK  189  A    between atoms: _472  and  _473
REMARK  190  A    between atoms: _477  and  _479
REMARK  191  A    between atoms: _479  and  _480
REMARK  192  A    between atoms: _479  and  _482
REMARK  193  A    between atoms: _482  and  _483
REMARK  194  A    between atoms: _486  and  _488
REMARK  195  A    between atoms: _488  and  _489
REMARK  196  A    between atoms: _488  and  _491
REMARK  197  A    between atoms: _494  and  _496
REMARK  198  A    between atoms: _496  and  _497
REMARK  199  A    between atoms: _496  and  _499
REMARK  200  A    between atoms: _499  and  _500
REMARK  201  A    between atoms: _503  and  _505
REMARK  202  A    between atoms: _505  and  _506
REMARK  203  A    between atoms: _505  and  _508
REMARK  204  A    between atoms: _508  and  _509
REMARK  205  A    between atoms: _511  and  _513
REMARK  206  A    between atoms: _513  and  _514
REMARK  207  A    between atoms: _516  and  _518
REMARK  208  A    between atoms: _518  and  _519
REMARK  209  A    between atoms: _518  and  _521
REMARK  210  A    between atoms: _521  and  _522
REMARK  211  A    between atoms: _525  and  _527
REMARK  212  A    between atoms: _527  and  _528
REMARK  213  A    between atoms: _527  and  _530
REMARK  214  A    between atoms: _530  and  _531
REMARK  215  A    between atoms: _534  and  _536
REMARK  216  A    between atoms: _536  and  _537
REMARK  217  A    between atoms: _536  and  _539
REMARK  218  A    between atoms: _539  and  _540
REMARK  219  A    between atoms: _545  and  _547
REMARK  220  A    between atoms: _547  and  _548
REMARK  221  A    between atoms: _547  and  _550
REMARK  222  A    between atoms: _550  and  _551
REMARK  223  A    between atoms: _554  and  _556
REMARK  224  A    between atoms: _556  and  _557
REMARK  225  A    between atoms: _556  and  _559
REMARK  226  A    between atoms: _559  and  _560
REMARK  227  A    between atoms: _560  and  _561
REMARK  228  A    between atoms: _561  and  _562
REMARK  229  A    between atoms: _571  and  _573
REMARK  230  A    between atoms: _573  and  _574
REMARK  231  A    between atoms: _573  and  _576
REMARK  232  A    between atoms: _576  and  _577
REMARK  233  A    between atoms: _580  and  _582
REMARK  234  A    between atoms: _582  and  _583
REMARK  235  A    between atoms: _585  and  _587
REMARK  236  A    between atoms: _587  and  _588
REMARK  237  A    between atoms: _587  and  _590
REMARK  238  A    between atoms: _590  and  _591
REMARK  239  A    between atoms: _591  and  _592
REMARK  240  A    between atoms: _592  and  _593
REMARK  241  A    between atoms: _602  and  _604
REMARK  242  A    between atoms: _604  and  _605
REMARK  243  A    between atoms: _604  and  _607
REMARK  244  A    between atoms: _607  and  _608
REMARK  245  A    between atoms: _608  and  _609
REMARK  246  A    between atoms: _609  and  _610
REMARK  247  A    between atoms: _610  and  _611
REMARK  248  A    between atoms: _615  and  _617
REMARK  249  A    between atoms: _617  and  _618
REMARK  250  A    between atoms: _617  and  _620
REMARK  251  A    between atoms: _620  and  _621
REMARK  252  A    between atoms: _627  and  _629
REMARK  253  A    between atoms: _629  and  _630
REMARK  254  A    between atoms: _633  and  _635
REMARK  255  A    between atoms: _635  and  _636
REMARK  256  A    between atoms: _635  and  _638
REMARK  257  A    between atoms: _638  and  _639
REMARK  258  A    between atoms: _642  and  _644
REMARK  259  A    between atoms: _644  and  _645
REMARK  260  A    between atoms: _644  and  _647
REMARK  261  A    between atoms: _647  and  _648
REMARK  262  A    between atoms: _650  and  _652
REMARK  263  A    between atoms: _652  and  _653
REMARK  264  A    between atoms: _652  and  _655
REMARK  265  A    between atoms: _655  and  _656
REMARK  266  A    between atoms: _656  and  _657
REMARK  267  A    between atoms: _662  and  _664
REMARK  268  A    between atoms: _664  and  _665
REMARK  269  A    between atoms: _664  and  _667
REMARK  270  A    between atoms: _667  and  _668
REMARK  271  A    between atoms: _670  and  _672
REMARK  272  A    between atoms: _672  and  _673
REMARK  273  A    between atoms: _672  and  _675
REMARK  274  A    between atoms: _675  and  _676
REMARK  275  A    between atoms: _679  and  _681
REMARK  276  A    between atoms: _681  and  _682
REMARK  277  A    between atoms: _684  and  _686
REMARK  278  A    between atoms: _686  and  _687
REMARK  279  A    between atoms: _686  and  _689
REMARK  280  A    between atoms: _689  and  _690
REMARK  281  A    between atoms: _693  and  _695
REMARK  282  A    between atoms: _695  and  _696
REMARK  283  A    between atoms: _695  and  _698
REMARK  284  A    between atoms: _701  and  _703
REMARK  285  A    between atoms: _703  and  _704
REMARK  286  A    between atoms: _706  and  _708
REMARK  287  A    between atoms: _708  and  _709
REMARK  288  A    between atoms: _712  and  _714
REMARK  289  A    between atoms: _714  and  _715
REMARK  290  A    between atoms: _714  and  _717
REMARK  291  A    between atoms: _720  and  _722
REMARK  292  A    between atoms: _722  and  _723
REMARK  293  A    between atoms: _722  and  _725
REMARK  294  A    between atoms: _725  and  _726
REMARK  295  A    between atoms: _726  and  _727
REMARK  296  A    between atoms: _729  and  _731
REMARK  297  A    between atoms: _731  and  _732
REMARK  298  A    between atoms: _731  and  _734
REMARK  299  A    between atoms: _734  and  _735
REMARK  300  A    between atoms: _735  and  _736
REMARK                            x       y       z     vdW  Elec       q    Type
REMARK                         _______ _______ _______ _____ _____    ______ ____
ROOT
ATOM      1  O   HOH     1      38.001  -9.368  18.557  0.00  0.00    +0.000 OA
ENDROOT
TORSDOF 0
REMARK  Name = ../refined-set-2016/4gid/4gid_pocket.pdb
REMARK  300 active torsions:
REMARK  status: ('A' for Active; 'I' for Inactive)
REMARK    1  A    between atoms: _1  and  _3
REMARK    2  A    between atoms: _3  and  _4
REMARK    3  A    between atoms: _6  and  _8
REMARK    4  A    between atoms: _8  and  _9
REMARK    5  A    between atoms: _8  and  _11
REMARK    6  A    between atoms: _11  and  _12
REMARK    7  A    between atoms: _12  and  _13
REMARK    8  A    between atoms: _13  and  _14
REMARK    9  A    between atoms: _14  and  _15
REMARK   10  A    between atoms: _19  and  _21
REMARK   11  A    between atoms: _21  and  _22
REMARK   12  A    between atoms: _21  and  _24
REMARK   13  A    between atoms: _24  and  _25
REMARK   14  A    between atoms: _27  and  _29
REMARK   15  A    between atoms: _29  and  _30
REMARK   16  A    between atoms: _32  and  _34
REMARK   17  A    between atoms: _34  and  _35
REMARK   18  A    between atoms: _34  and  _37
REMARK   19  A    between atoms: _37  and  _38
REMARK   20  A    between atoms: _38  and  _39
REMARK   21  A    between atoms: _44  and  _46
REMARK   22  A    between atoms: _46  and  _47
REMARK   23  A    between atoms: _49  and  _51
REMARK   24  A    between atoms: _51  and  _52
REMARK   25  A    between atoms: _51  and  _54
REMARK   26  A    between atoms: _54  and  _55
REMARK   27  A    between atoms: _60  and  _61
REMARK   28  A    between atoms: _63  and  _65
REMARK   29  A    between atoms: _65  and  _66
REMARK   30  A    between atoms: _65  and  _68
REMARK   31  A    between atoms: _68  and  _69
REMARK   32  A    between atoms: _74  and  _75
REMARK   33  A    between atoms: _77  and  _79
REMARK   34  A    between atoms: _79  and  _80
REMARK   35  A    between atoms: _79  and  _82
REMARK   36  A    between atoms: _82  and  _83
REMARK   37  A    between atoms: _86  and  _88
REMARK   38  A    between atoms: _88  and  _89
REMARK   39  A    between atoms: _88  and  _91
REMARK   40  A    between atoms: _94  and  _96
REMARK   41  A    between atoms: _96  and  _97
REMARK   42  A    between atoms: _96  and  _99
REMARK   43  A    between atoms: _99  and  _100
REMARK   44  A    between atoms: _103  and  _105
REMARK   45  A    between atoms: _105  and  _106
REMARK   46  A    between atoms: _105  and  _108
REMARK   47  A    between atoms: _108  and  _109
REMARK   48  A    between atoms: _112  and  _114
REMARK   49  A    between atoms: _114  and  _115
REMARK   50  A    between atoms: _117  and  _119
REMARK   51  A    between atoms: _119  and  _120
REMARK   52  A    between atoms: _119  and  _122
REMARK   53  A    between atoms: _122  and  _123
REMARK   54  A    between atoms: _125  and  _127
REMARK   55  A    between atoms: _127  and  _128
REMARK   56  A    between atoms: _127  and  _130
REMARK   57  A    between atoms: _130  and  _131
REMARK   58  A    between atoms: _133  and  _135
REMARK   59  A    between atoms: _135  and  _136
REMARK   60  A    between atoms: _135  and  _138
REMARK   61  A    between atoms: _138  and  _139
REMARK   62  A    between atoms: _144  and  _146
REMARK   63  A    between atoms: _146  and  _147
REMARK   64  A    between atoms: _146  and  _149
REMARK   65  A    between atoms: _149  and  _150
REMARK   66  A    between atoms: _155  and  _156
REMARK   67  A    between atoms: _158  and  _160
REMARK   68  A    between atoms: _160  and  _161
REMARK   69  A    between atoms: _160  and  _163
REMARK   70  A    between atoms: _167  and  _168
REMARK   71  A    between atoms: _173  and  _175
REMARK   72  A    between atoms: _175  and  _176
REMARK   73  A    between atoms: _175  and  _178
REMARK   74  A    between atoms: _178  and  _179
REMARK   75  A    between atoms: _184  and  _185
REMARK   76  A    between atoms: _187  and  _189
REMARK   77  A    between atoms: _189  and  _190
REMARK   78  A    between atoms: _189  and  _192
REMARK   79  A    between atoms: _192  and  _193
REMARK   80  A    between atoms: _196  and  _198
REMARK   81  A    between atoms: _198  and  _199
REMARK   82  A    between atoms: _198  and  _201
REMARK   83  A    between atoms: _201  and  _202
REMARK   84  A    between atoms: _202  and  _203
REMARK   85  A    between atoms: _208  and  _210
REMARK   86  A    between atoms: _210  and  _211
REMARK   87  A    between atoms: _213  and  _215
REMARK   88  A    between atoms: _215  and  _216
REMARK   89  A    between atoms: _215  and  _218
REMARK   90  A    between atoms: _218  and  _219
REMARK   91  A    between atoms: _219  and  _220
REMARK   92  A    between atoms: _220  and  _221
REMARK   93  A    between atoms: _221  and  _222
REMARK   94  A    between atoms: _226  and  _228
REMARK   95  A    between atoms: _228  and  _229
REMARK   96  A    between atoms: _228  and  _231
REMARK   97  A    between atoms: _231  and  _232
REMARK   98  A    between atoms: _242  and  _244
REMARK   99  A    between atoms: _244  and  _245
REMARK  100  A    between atoms: _244  and  _247
REMARK  101  A    between atoms: _247  and  _248
REMARK  102  A    between atoms: _251  and  _253
REMARK  103  A    between atoms: _253  and  _254
REMARK  104  A    between atoms: _253  and  _256
REMARK  105  A    between atoms: _256  and  _257
REMARK  106  A    between atoms: _257  and  _258
REMARK  107  A    between atoms: _258  and  _259
REMARK  108  A    between atoms: _259  and  _260
REMARK  109  A    between atoms: _264  and  _266
REMARK  110  A    between atoms: _266  and  _267
REMARK  111  A    between atoms: _266  and  _269
REMARK  112  A    between atoms: _269  and  _270
REMARK  113  A    between atoms: _276  and  _278
REMARK  114  A    between atoms: _278  and  _279
REMARK  115  A    between atoms: _278  and  _281
REMARK  116  A    between atoms: _281  and  _282
REMARK  117  A    between atoms: _288  and  _290
REMARK  118  A    between atoms: _290  and  _291
REMARK  119  A    between atoms: _290  and  _293
REMARK  120  A    between atoms: _293  and  _294
REMARK  121  A    between atoms: _297  and  _299
REMARK  122  A    between atoms: _299  and  _300
REMARK  123  A    between atoms: _299  and  _302
REMARK  124  A    between atoms: _302  and  _303
REMARK  125  A    between atoms: _305  and  _307
REMARK  126  A    between atoms: _307  and  _308
REMARK  127  A    between atoms: _307  and  _310
REMARK  128  A    between atoms: _310  and  _311
REMARK  129  A    between atoms: _321  and  _323
REMARK  130  A    between atoms: _323  and  _324
REMARK  131  A    between atoms: _326  and  _328
REMARK  132  A    between atoms: _328  and  _329
REMARK  133  A    between atoms: _328  and  _331
REMARK  134  A    between atoms: _331  and  _332
REMARK  135  A    between atoms: _335  and  _337
REMARK  136  A    between atoms: _337  and  _338
REMARK  137  A    between atoms: _337  and  _340
REMARK  138  A    between atoms: _340  and  _341
REMARK  139  A    between atoms: _344  and  _346
REMARK  140  A    between atoms: _346  and  _347
REMARK  141  A    between atoms: _349  and  _351
REMARK  142  A    between atoms: _351  and  _352
REMARK  143  A    between atoms: _355  and  _357
REMARK  144  A    between atoms: _357  and  _358
REMARK  145  A    between atoms: _357  and  _360
REMARK  146  A    between atoms: _360  and  _361
REMARK  147  A    between atoms: _366  and  _367
REMARK  148  A    between atoms: _369  and  _371
REMARK  149  A    between atoms: _371  and  _372
REMARK  150  A    between atoms: _371  and  _374
REMARK  151  A    between atoms: _374  and  _375
REMARK  152  A    between atoms: _375  and  _376
REMARK  153  A    between atoms: _379  and  _381
REMARK  154  A    between atoms: _381  and  _382
REMARK  155  A    between atoms: _381  and  _384
REMARK  156  A    between atoms: _384  and  _385
REMARK  157  A    between atoms: _388  and  _390
REMARK  158  A    between atoms: _390  and  _391
REMARK  159  A    between atoms: _394  and  _396
REMARK  160  A    between atoms: _396  and  _397
REMARK  161  A    between atoms: _396  and  _399
REMARK  162  A    between atoms: _399  and  _400
REMARK  163  A    between atoms: _400  and  _401
REMARK  164  A    between atoms: _401  and  _402
REMARK  165  A    between atoms: _411  and  _413
REMARK  166  A    between atoms: _413  and  _414
REMARK  167  A    between atoms: _413  and  _416
REMARK  168  A    between atoms: _416  and  _417
REMARK  169  A    between atoms: _420  and  _422
REMARK  170  A    between atoms: _422  and  _423
REMARK  171  A    between atoms: _422  and  _425
REMARK  172  A    between atoms: _425  and  _426
REMARK  173  A    between atoms: _436  and  _438
REMARK  174  A    between atoms: _438  and  _439
REMARK  175  A    between atoms: _438  and  _441
REMARK  176  A    between atoms: _441  and  _442
REMARK  177  A    between atoms: _447  and  _448
REMARK  178  A    between atoms: _450  and  _452
REMARK  179  A    between atoms: _452  and  _453
REMARK  180  A    between atoms: _452  and  _455
REMARK  181  A    between atoms: _455  and  _456
REMARK  182  A    between atoms: _461  and  _462
REMARK  183  A    between atoms: _464  and  _466
REMARK  184  A    between atoms: _466  and  _467
REMARK  185  A    between atoms: _466  and  _469
REMARK  186  A    between atoms: _469  and  _470
REMARK  187  A    between atoms: _470  and  _471
REMARK  188  A    between atoms: _471  and  _472
REMARK  189  A    between atoms: _472  and  _473
REMARK  190  A    between atoms: _477  and  _479
REMARK  191  A    between atoms: _479  and  _480
REMARK  192  A    between atoms: _479  and  _482
REMARK  193  A    between atoms: _482  and  _483
REMARK  194  A    between atoms: _486  and  _488
REMARK  195  A    between atoms: _488  and  _489
REMARK  196  A    between atoms: _488  and  _491
REMARK  197  A    between atoms: _494  and  _496
REMARK  198  A    between atoms: _496  and  _497
REMARK  199  A    between atoms: _496  and  _499
REMARK  200  A    between atoms: _499  and  _500
REMARK  201  A    between atoms: _503  and  _505
REMARK  202  A    between atoms: _505  and  _506
REMARK  203  A    between atoms: _505  and  _508
REMARK  204  A    between atoms: _508  and  _509
REMARK  205  A    between atoms: _511  and  _513
REMARK  206  A    between atoms: _513  and  _514
REMARK  207  A    between atoms: _516  and  _518
REMARK  208  A    between atoms: _518  and  _519
REMARK  209  A    between atoms: _518  and  _521
REMARK  210  A    between atoms: _521  and  _522
REMARK  211  A    between atoms: _525  and  _527
REMARK  212  A    between atoms: _527  and  _528
REMARK  213  A    between atoms: _527  and  _530
REMARK  214  A    between atoms: _530  and  _531
REMARK  215  A    between atoms: _534  and  _536
REMARK  216  A    between atoms: _536  and  _537
REMARK  217  A    between atoms: _536  and  _539
REMARK  218  A    between atoms: _539  and  _540
REMARK  219  A    between atoms: _545  and  _547
REMARK  220  A    between atoms: _547  and  _548
REMARK  221  A    between atoms: _547  and  _550
REMARK  222  A    between atoms: _550  and  _551
REMARK  223  A    between atoms: _554  and  _556
REMARK  224  A    between atoms: _556  and  _557
REMARK  225  A    between atoms: _556  and  _559
REMARK  226  A    between atoms: _559  and  _560
REMARK  227  A    between atoms: _560  and  _561
REMARK  228  A    between atoms: _561  and  _562
REMARK  229  A    between atoms: _571  and  _573
REMARK  230  A    between atoms: _573  and  _574
REMARK  231  A    between atoms: _573  and  _576
REMARK  232  A    between atoms: _576  and  _577
REMARK  233  A    between atoms: _580  and  _582
REMARK  234  A    between atoms: _582  and  _583
REMARK  235  A    between atoms: _585  and  _587
REMARK  236  A    between atoms: _587  and  _588
REMARK  237  A    between atoms: _587  and  _590
REMARK  238  A    between atoms: _590  and  _591
REMARK  239  A    between atoms: _591  and  _592
REMARK  240  A    between atoms: _592  and  _593
REMARK  241  A    between atoms: _602  and  _604
REMARK  242  A    between atoms: _604  and  _605
REMARK  243  A    between atoms: _604  and  _607
REMARK  244  A    between atoms: _607  and  _608
REMARK  245  A    between atoms: _608  and  _609
REMARK  246  A    between atoms: _609  and  _610
REMARK  247  A    between atoms: _610  and  _611
REMARK  248  A    between atoms: _615  and  _617
REMARK  249  A    between atoms: _617  and  _618
REMARK  250  A    between atoms: _617  and  _620
REMARK  251  A    between atoms: _620  and  _621
REMARK  252  A    between atoms: _627  and  _629
REMARK  253  A    between atoms: _629  and  _630
REMARK  254  A    between atoms: _633  and  _635
REMARK  255  A    between atoms: _635  and  _636
REMARK  256  A    between atoms: _635  and  _638
REMARK  257  A    between atoms: _638  and  _639
REMARK  258  A    between atoms: _642  and  _644
REMARK  259  A    between atoms: _644  and  _645
REMARK  260  A    between atoms: _644  and  _647
REMARK  261  A    between atoms: _647  and  _648
REMARK  262  A    between atoms: _650  and  _652
REMARK  263  A    between atoms: _652  and  _653
REMARK  264  A    between atoms: _652  and  _655
REMARK  265  A    between atoms: _655  and  _656
REMARK  266  A    between atoms: _656  and  _657
REMARK  267  A    between atoms: _662  and  _664
REMARK  268  A    between atoms: _664  and  _665
REMARK  269  A    between atoms: _664  and  _667
REMARK  270  A    between atoms: _667  and  _668
REMARK  271  A    between atoms: _670  and  _672
REMARK  272  A    between atoms: _672  and  _673
REMARK  273  A    between atoms: _672  and  _675
REMARK  274  A    between atoms: _675  and  _676
REMARK  275  A    between atoms: _679  and  _681
REMARK  276  A    between atoms: _681  and  _682
REMARK  277  A    between atoms: _684  and  _686
REMARK  278  A    between atoms: _686  and  _687
REMARK  279  A    between atoms: _686  and  _689
REMARK  280  A    between atoms: _689  and  _690
REMARK  281  A    between atoms: _693  and  _695
REMARK  282  A    between atoms: _695  and  _696
REMARK  283  A    between atoms: _695  and  _698
REMARK  284  A    between atoms: _701  and  _703
REMARK  285  A    between atoms: _703  and  _704
REMARK  286  A    between atoms: _706  and  _708
REMARK  287  A    between atoms: _708  and  _709
REMARK  288  A    between atoms: _712  and  _714
REMARK  289  A    between atoms: _714  and  _715
REMARK  290  A    between atoms: _714  and  _717
REMARK  291  A    between atoms: _720  and  _722
REMARK  292  A    between atoms: _722  and  _723
REMARK  293  A    between atoms: _722  and  _725
REMARK  294  A    between atoms: _725  and  _726
REMARK  295  A    between atoms: _726  and  _727
REMARK  296  A    between atoms: _729  and  _731
REMARK  297  A    between atoms: _731  and  _732
REMARK  298  A    between atoms: _731  and  _734
REMARK  299  A    between atoms: _734  and  _735
REMARK  300  A    between atoms: _735  and  _736
REMARK                            x       y       z     vdW  Elec       q    Type
REMARK                         _______ _______ _______ _____ _____    ______ ____
ROOT
ATOM      1  O   HOH     1      57.044  -3.116  11.651  0.00  0.00    +0.000 OA
ENDROOT
TORSDOF 0
