REMARK  Name = ../refined-set-2016/2q5k/2q5k_pocket.pdb
REMARK  231 active torsions:
REMARK  status: ('A' for Active; 'I' for Inactive)
REMARK    1  A    between atoms: _1  and  _3
REMARK    2  A    between atoms: _3  and  _4
REMARK    3  A    between atoms: _3  and  _6
REMARK    4  A    between atoms: _6  and  _7
REMARK    5  A    between atoms: _7  and  _8
REMARK    6  A    between atoms: _8  and  _9
REMARK    7  A    between atoms: _18  and  _20
REMARK    8  A    between atoms: _20  and  _21
REMARK    9  A    between atoms: _20  and  _23
REMARK   10  A    between atoms: _23  and  _24
REMARK   11  A    between atoms: _27  and  _29
REMARK   12  A    between atoms: _29  and  _30
REMARK   13  A    between atoms: _29  and  _32
REMARK   14  A    between atoms: _32  and  _33
REMARK   15  A    between atoms: _36  and  _38
REMARK   16  A    between atoms: _38  and  _39
REMARK   17  A    between atoms: _38  and  _41
REMARK   18  A    between atoms: _41  and  _42
REMARK   19  A    between atoms: _45  and  _47
REMARK   20  A    between atoms: _47  and  _48
REMARK   21  A    between atoms: _47  and  _50
REMARK   22  A    between atoms: _50  and  _51
REMARK   23  A    between atoms: _54  and  _56
REMARK   24  A    between atoms: _56  and  _57
REMARK   25  A    between atoms: _59  and  _61
REMARK   26  A    between atoms: _61  and  _62
REMARK   27  A    between atoms: _65  and  _67
REMARK   28  A    between atoms: _67  and  _68
REMARK   29  A    between atoms: _67  and  _70
REMARK   30  A    between atoms: _70  and  _71
REMARK   31  A    between atoms: _74  and  _76
REMARK   32  A    between atoms: _76  and  _77
REMARK   33  A    between atoms: _76  and  _79
REMARK   34  A    between atoms: _79  and  _80
REMARK   35  A    between atoms: _83  and  _85
REMARK   36  A    between atoms: _85  and  _86
REMARK   37  A    between atoms: _85  and  _88
REMARK   38  A    between atoms: _88  and  _89
REMARK   39  A    between atoms: _92  and  _94
REMARK   40  A    between atoms: _94  and  _95
REMARK   41  A    between atoms: _94  and  _97
REMARK   42  A    between atoms: _100  and  _102
REMARK   43  A    between atoms: _102  and  _103
REMARK   44  A    between atoms: _102  and  _105
REMARK   45  A    between atoms: _105  and  _106
REMARK   46  A    between atoms: _106  and  _107
REMARK   47  A    between atoms: _107  and  _108
REMARK   48  A    between atoms: _108  and  _109
REMARK   49  A    between atoms: _113  and  _115
REMARK   50  A    between atoms: _115  and  _116
REMARK   51  A    between atoms: _115  and  _118
REMARK   52  A    between atoms: _118  and  _119
REMARK   53  A    between atoms: _119  and  _120
REMARK   54  A    between atoms: _122  and  _124
REMARK   55  A    between atoms: _124  and  _125
REMARK   56  A    between atoms: _124  and  _127
REMARK   57  A    between atoms: _127  and  _128
REMARK   58  A    between atoms: _131  and  _133
REMARK   59  A    between atoms: _133  and  _134
REMARK   60  A    between atoms: _136  and  _138
REMARK   61  A    between atoms: _138  and  _139
REMARK   62  A    between atoms: _141  and  _143
REMARK   63  A    between atoms: _143  and  _144
REMARK   64  A    between atoms: _143  and  _146
REMARK   65  A    between atoms: _146  and  _147
REMARK   66  A    between atoms: _150  and  _152
REMARK   67  A    between atoms: _152  and  _153
REMARK   68  A    between atoms: _155  and  _157
REMARK   69  A    between atoms: _157  and  _158
REMARK   70  A    between atoms: _160  and  _162
REMARK   71  A    between atoms: _162  and  _163
REMARK   72  A    between atoms: _162  and  _165
REMARK   73  A    between atoms: _165  and  _166
REMARK   74  A    between atoms: _172  and  _174
REMARK   75  A    between atoms: _174  and  _175
REMARK   76  A    between atoms: _174  and  _177
REMARK   77  A    between atoms: _177  and  _178
REMARK   78  A    between atoms: _181  and  _183
REMARK   79  A    between atoms: _183  and  _184
REMARK   80  A    between atoms: _183  and  _186
REMARK   81  A    between atoms: _186  and  _187
REMARK   82  A    between atoms: _191  and  _192
REMARK   83  A    between atoms: _197  and  _199
REMARK   84  A    between atoms: _199  and  _200
REMARK   85  A    between atoms: _199  and  _202
REMARK   86  A    between atoms: _202  and  _203
REMARK   87  A    between atoms: _207  and  _208
REMARK   88  A    between atoms: _213  and  _215
REMARK   89  A    between atoms: _215  and  _216
REMARK   90  A    between atoms: _215  and  _218
REMARK   91  A    between atoms: _221  and  _223
REMARK   92  A    between atoms: _223  and  _224
REMARK   93  A    between atoms: _223  and  _226
REMARK   94  A    between atoms: _226  and  _227
REMARK   95  A    between atoms: _232  and  _234
REMARK   96  A    between atoms: _234  and  _235
REMARK   97  A    between atoms: _234  and  _237
REMARK   98  A    between atoms: _237  and  _238
REMARK   99  A    between atoms: _241  and  _243
REMARK  100  A    between atoms: _243  and  _244
REMARK  101  A    between atoms: _243  and  _246
REMARK  102  A    between atoms: _246  and  _247
REMARK  103  A    between atoms: _250  and  _252
REMARK  104  A    between atoms: _252  and  _253
REMARK  105  A    between atoms: _255  and  _257
REMARK  106  A    between atoms: _257  and  _258
REMARK  107  A    between atoms: _257  and  _260
REMARK  108  A    between atoms: _260  and  _261
REMARK  109  A    between atoms: _261  and  _262
REMARK  110  A    between atoms: _262  and  _263
REMARK  111  A    between atoms: _272  and  _274
REMARK  112  A    between atoms: _274  and  _275
REMARK  113  A    between atoms: _274  and  _277
REMARK  114  A    between atoms: _277  and  _278
REMARK  115  A    between atoms: _278  and  _279
REMARK  116  A    between atoms: _279  and  _280
REMARK  117  A    between atoms: _289  and  _291
REMARK  118  A    between atoms: _291  and  _292
REMARK  119  A    between atoms: _291  and  _294
REMARK  120  A    between atoms: _294  and  _295
REMARK  121  A    between atoms: _298  and  _300
REMARK  122  A    between atoms: _300  and  _301
REMARK  123  A    between atoms: _300  and  _303
REMARK  124  A    between atoms: _303  and  _304
REMARK  125  A    between atoms: _307  and  _309
REMARK  126  A    between atoms: _309  and  _310
REMARK  127  A    between atoms: _309  and  _312
REMARK  128  A    between atoms: _312  and  _313
REMARK  129  A    between atoms: _316  and  _318
REMARK  130  A    between atoms: _318  and  _319
REMARK  131  A    between atoms: _318  and  _321
REMARK  132  A    between atoms: _321  and  _322
REMARK  133  A    between atoms: _325  and  _327
REMARK  134  A    between atoms: _327  and  _328
REMARK  135  A    between atoms: _330  and  _332
REMARK  136  A    between atoms: _332  and  _333
REMARK  137  A    between atoms: _336  and  _338
REMARK  138  A    between atoms: _338  and  _339
REMARK  139  A    between atoms: _338  and  _341
REMARK  140  A    between atoms: _341  and  _342
REMARK  141  A    between atoms: _345  and  _347
REMARK  142  A    between atoms: _347  and  _348
REMARK  143  A    between atoms: _347  and  _350
REMARK  144  A    between atoms: _350  and  _351
REMARK  145  A    between atoms: _354  and  _356
REMARK  146  A    between atoms: _356  and  _357
REMARK  147  A    between atoms: _356  and  _359
REMARK  148  A    between atoms: _359  and  _360
REMARK  149  A    between atoms: _363  and  _365
REMARK  150  A    between atoms: _365  and  _366
REMARK  151  A    between atoms: _365  and  _368
REMARK  152  A    between atoms: _371  and  _373
REMARK  153  A    between atoms: _373  and  _374
REMARK  154  A    between atoms: _373  and  _376
REMARK  155  A    between atoms: _376  and  _377
REMARK  156  A    between atoms: _380  and  _382
REMARK  157  A    between atoms: _382  and  _383
REMARK  158  A    between atoms: _382  and  _385
REMARK  159  A    between atoms: _385  and  _386
REMARK  160  A    between atoms: _386  and  _387
REMARK  161  A    between atoms: _387  and  _388
REMARK  162  A    between atoms: _388  and  _389
REMARK  163  A    between atoms: _393  and  _395
REMARK  164  A    between atoms: _395  and  _396
REMARK  165  A    between atoms: _395  and  _398
REMARK  166  A    between atoms: _398  and  _399
REMARK  167  A    between atoms: _399  and  _400
REMARK  168  A    between atoms: _402  and  _404
REMARK  169  A    between atoms: _404  and  _405
REMARK  170  A    between atoms: _404  and  _407
REMARK  171  A    between atoms: _407  and  _408
REMARK  172  A    between atoms: _411  and  _413
REMARK  173  A    between atoms: _413  and  _414
REMARK  174  A    between atoms: _416  and  _418
REMARK  175  A    between atoms: _418  and  _419
REMARK  176  A    between atoms: _421  and  _423
REMARK  177  A    between atoms: _423  and  _424
REMARK  178  A    between atoms: _423  and  _426
REMARK  179  A    between atoms: _426  and  _427
REMARK  180  A    between atoms: _430  and  _432
REMARK  181  A    between atoms: _432  and  _433
REMARK  182  A    between atoms: _435  and  _437
REMARK  183  A    between atoms: _437  and  _438
REMARK  184  A    between atoms: _440  and  _442
REMARK  185  A    between atoms: _442  and  _443
REMARK  186  A    between atoms: _442  and  _445
REMARK  187  A    between atoms: _445  and  _446
REMARK  188  A    between atoms: _452  and  _454
REMARK  189  A    between atoms: _454  and  _455
REMARK  190  A    between atoms: _454  and  _457
REMARK  191  A    between atoms: _457  and  _458
REMARK  192  A    between atoms: _461  and  _463
REMARK  193  A    between atoms: _463  and  _464
REMARK  194  A    between atoms: _463  and  _466
REMARK  195  A    between atoms: _469  and  _471
REMARK  196  A    between atoms: _471  and  _472
REMARK  197  A    between atoms: _471  and  _474
REMARK  198  A    between atoms: _474  and  _475
REMARK  199  A    between atoms: _479  and  _480
REMARK  200  A    between atoms: _485  and  _487
REMARK  201  A    between atoms: _487  and  _488
REMARK  202  A    between atoms: _487  and  _490
REMARK  203  A    between atoms: _490  and  _491
REMARK  204  A    between atoms: _495  and  _496
REMARK  205  A    between atoms: _501  and  _503
REMARK  206  A    between atoms: _503  and  _504
REMARK  207  A    between atoms: _503  and  _506
REMARK  208  A    between atoms: _509  and  _511
REMARK  209  A    between atoms: _511  and  _512
REMARK  210  A    between atoms: _511  and  _514
REMARK  211  A    between atoms: _514  and  _515
REMARK  212  A    between atoms: _520  and  _522
REMARK  213  A    between atoms: _522  and  _523
REMARK  214  A    between atoms: _522  and  _525
REMARK  215  A    between atoms: _525  and  _526
REMARK  216  A    between atoms: _529  and  _531
REMARK  217  A    between atoms: _531  and  _532
REMARK  218  A    between atoms: _531  and  _534
REMARK  219  A    between atoms: _534  and  _535
REMARK  220  A    between atoms: _538  and  _540
REMARK  221  A    between atoms: _540  and  _541
REMARK  222  A    between atoms: _543  and  _545
REMARK  223  A    between atoms: _545  and  _546
REMARK  224  A    between atoms: _545  and  _548
REMARK  225  A    between atoms: _548  and  _549
REMARK  226  A    between atoms: _549  and  _550
REMARK  227  A    between atoms: _550  and  _551
REMARK  228  A    between atoms: _560  and  _562
REMARK  229  A    between atoms: _562  and  _563
REMARK  230  A    between atoms: _562  and  _565
REMARK  231  A    between atoms: _565  and  _566
REMARK                            x       y       z     vdW  Elec       q    Type
REMARK                         _______ _______ _______ _____ _____    ______ ____
ROOT
ATOM      1  NE  ARG A   1      21.093  37.331  22.481  0.00  0.00    -0.265 N 
ATOM      2  HE  ARG A   1      20.500  37.819  23.183  0.00  0.00    +0.259 HD
ATOM      3  CZ  ARG A   1      20.998  37.736  21.214  0.00  0.00    +0.342 C 
ATOM      4  NH2 ARG A   1      20.167  38.724  20.926  0.00  0.00    -0.292 N 
ATOM      5 HH21 ARG A   1      19.605  39.167  21.680  0.00  0.00    +0.255 HD
ATOM      6 HH22 ARG A   1      20.076  39.057  19.945  0.00  0.00    +0.255 HD
ATOM      7  NH1 ARG A   1      21.708  37.157  20.235  0.00  0.00    -0.292 N 
ATOM      8 HH11 ARG A   1      22.353  36.371  20.455  0.00  0.00    +0.255 HD
ATOM      9 HH12 ARG A   1      21.614  37.494  19.255  0.00  0.00    +0.255 HD
ENDROOT
BRANCH   1  10
ATOM     10  CD  ARG A   1      21.958  36.262  22.965  0.00  0.00    +0.174 C 
BRANCH  10  11
ATOM     11  CG  ARG A   1      21.294  35.522  24.097  0.00  0.00    +0.045 C 
BRANCH  11  12
ATOM     12  CB  ARG A   1      22.304  34.728  24.900  0.00  0.00    +0.029 C 
BRANCH  12  13
ATOM     13  CA  ARG A   1      21.672  33.765  25.890  0.00  0.00    +0.133 C 
BRANCH  13  14
ATOM     14  N   ARG A   1      20.965  34.479  26.942  0.00  0.00    -0.239 NA
ATOM     15  H   ARG A   1      20.969  35.519  26.945  0.00  0.00    +0.142 HD
ENDBRANCH  13  14
BRANCH  13  16
ATOM     16  C   ARG A   1      22.758  32.886  26.515  0.00  0.00    +0.224 C 
ATOM     17  O   ARG A   1      23.468  33.333  27.432  0.00  0.00    -0.287 OA
ENDBRANCH  13  16
ENDBRANCH  12  13
ENDBRANCH  11  12
ENDBRANCH  10  11
ENDBRANCH   1  10
TORSDOF 6
REMARK  Name = ../refined-set-2016/2q5k/2q5k_pocket.pdb
REMARK  231 active torsions:
REMARK  status: ('A' for Active; 'I' for Inactive)
REMARK    1  A    between atoms: _1  and  _3
REMARK    2  A    between atoms: _3  and  _4
REMARK    3  A    between atoms: _3  and  _6
REMARK    4  A    between atoms: _6  and  _7
REMARK    5  A    between atoms: _7  and  _8
REMARK    6  A    between atoms: _8  and  _9
REMARK    7  A    between atoms: _18  and  _20
REMARK    8  A    between atoms: _20  and  _21
REMARK    9  A    between atoms: _20  and  _23
REMARK   10  A    between atoms: _23  and  _24
REMARK   11  A    between atoms: _27  and  _29
REMARK   12  A    between atoms: _29  and  _30
REMARK   13  A    between atoms: _29  and  _32
REMARK   14  A    between atoms: _32  and  _33
REMARK   15  A    between atoms: _36  and  _38
REMARK   16  A    between atoms: _38  and  _39
REMARK   17  A    between atoms: _38  and  _41
REMARK   18  A    between atoms: _41  and  _42
REMARK   19  A    between atoms: _45  and  _47
REMARK   20  A    between atoms: _47  and  _48
REMARK   21  A    between atoms: _47  and  _50
REMARK   22  A    between atoms: _50  and  _51
REMARK   23  A    between atoms: _54  and  _56
REMARK   24  A    between atoms: _56  and  _57
REMARK   25  A    between atoms: _59  and  _61
REMARK   26  A    between atoms: _61  and  _62
REMARK   27  A    between atoms: _65  and  _67
REMARK   28  A    between atoms: _67  and  _68
REMARK   29  A    between atoms: _67  and  _70
REMARK   30  A    between atoms: _70  and  _71
REMARK   31  A    between atoms: _74  and  _76
REMARK   32  A    between atoms: _76  and  _77
REMARK   33  A    between atoms: _76  and  _79
REMARK   34  A    between atoms: _79  and  _80
REMARK   35  A    between atoms: _83  and  _85
REMARK   36  A    between atoms: _85  and  _86
REMARK   37  A    between atoms: _85  and  _88
REMARK   38  A    between atoms: _88  and  _89
REMARK   39  A    between atoms: _92  and  _94
REMARK   40  A    between atoms: _94  and  _95
REMARK   41  A    between atoms: _94  and  _97
REMARK   42  A    between atoms: _100  and  _102
REMARK   43  A    between atoms: _102  and  _103
REMARK   44  A    between atoms: _102  and  _105
REMARK   45  A    between atoms: _105  and  _106
REMARK   46  A    between atoms: _106  and  _107
REMARK   47  A    between atoms: _107  and  _108
REMARK   48  A    between atoms: _108  and  _109
REMARK   49  A    between atoms: _113  and  _115
REMARK   50  A    between atoms: _115  and  _116
REMARK   51  A    between atoms: _115  and  _118
REMARK   52  A    between atoms: _118  and  _119
REMARK   53  A    between atoms: _119  and  _120
REMARK   54  A    between atoms: _122  and  _124
REMARK   55  A    between atoms: _124  and  _125
REMARK   56  A    between atoms: _124  and  _127
REMARK   57  A    between atoms: _127  and  _128
REMARK   58  A    between atoms: _131  and  _133
REMARK   59  A    between atoms: _133  and  _134
REMARK   60  A    between atoms: _136  and  _138
REMARK   61  A    between atoms: _138  and  _139
REMARK   62  A    between atoms: _141  and  _143
REMARK   63  A    between atoms: _143  and  _144
REMARK   64  A    between atoms: _143  and  _146
REMARK   65  A    between atoms: _146  and  _147
REMARK   66  A    between atoms: _150  and  _152
REMARK   67  A    between atoms: _152  and  _153
REMARK   68  A    between atoms: _155  and  _157
REMARK   69  A    between atoms: _157  and  _158
REMARK   70  A    between atoms: _160  and  _162
REMARK   71  A    between atoms: _162  and  _163
REMARK   72  A    between atoms: _162  and  _165
REMARK   73  A    between atoms: _165  and  _166
REMARK   74  A    between atoms: _172  and  _174
REMARK   75  A    between atoms: _174  and  _175
REMARK   76  A    between atoms: _174  and  _177
REMARK   77  A    between atoms: _177  and  _178
REMARK   78  A    between atoms: _181  and  _183
REMARK   79  A    between atoms: _183  and  _184
REMARK   80  A    between atoms: _183  and  _186
REMARK   81  A    between atoms: _186  and  _187
REMARK   82  A    between atoms: _191  and  _192
REMARK   83  A    between atoms: _197  and  _199
REMARK   84  A    between atoms: _199  and  _200
REMARK   85  A    between atoms: _199  and  _202
REMARK   86  A    between atoms: _202  and  _203
REMARK   87  A    between atoms: _207  and  _208
REMARK   88  A    between atoms: _213  and  _215
REMARK   89  A    between atoms: _215  and  _216
REMARK   90  A    between atoms: _215  and  _218
REMARK   91  A    between atoms: _221  and  _223
REMARK   92  A    between atoms: _223  and  _224
REMARK   93  A    between atoms: _223  and  _226
REMARK   94  A    between atoms: _226  and  _227
REMARK   95  A    between atoms: _232  and  _234
REMARK   96  A    between atoms: _234  and  _235
REMARK   97  A    between atoms: _234  and  _237
REMARK   98  A    between atoms: _237  and  _238
REMARK   99  A    between atoms: _241  and  _243
REMARK  100  A    between atoms: _243  and  _244
REMARK  101  A    between atoms: _243  and  _246
REMARK  102  A    between atoms: _246  and  _247
REMARK  103  A    between atoms: _250  and  _252
REMARK  104  A    between atoms: _252  and  _253
REMARK  105  A    between atoms: _255  and  _257
REMARK  106  A    between atoms: _257  and  _258
REMARK  107  A    between atoms: _257  and  _260
REMARK  108  A    between atoms: _260  and  _261
REMARK  109  A    between atoms: _261  and  _262
REMARK  110  A    between atoms: _262  and  _263
REMARK  111  A    between atoms: _272  and  _274
REMARK  112  A    between atoms: _274  and  _275
REMARK  113  A    between atoms: _274  and  _277
REMARK  114  A    between atoms: _277  and  _278
REMARK  115  A    between atoms: _278  and  _279
REMARK  116  A    between atoms: _279  and  _280
REMARK  117  A    between atoms: _289  and  _291
REMARK  118  A    between atoms: _291  and  _292
REMARK  119  A    between atoms: _291  and  _294
REMARK  120  A    between atoms: _294  and  _295
REMARK  121  A    between atoms: _298  and  _300
REMARK  122  A    between atoms: _300  and  _301
REMARK  123  A    between atoms: _300  and  _303
REMARK  124  A    between atoms: _303  and  _304
REMARK  125  A    between atoms: _307  and  _309
REMARK  126  A    between atoms: _309  and  _310
REMARK  127  A    between atoms: _309  and  _312
REMARK  128  A    between atoms: _312  and  _313
REMARK  129  A    between atoms: _316  and  _318
REMARK  130  A    between atoms: _318  and  _319
REMARK  131  A    between atoms: _318  and  _321
REMARK  132  A    between atoms: _321  and  _322
REMARK  133  A    between atoms: _325  and  _327
REMARK  134  A    between atoms: _327  and  _328
REMARK  135  A    between atoms: _330  and  _332
REMARK  136  A    between atoms: _332  and  _333
REMARK  137  A    between atoms: _336  and  _338
REMARK  138  A    between atoms: _338  and  _339
REMARK  139  A    between atoms: _338  and  _341
REMARK  140  A    between atoms: _341  and  _342
REMARK  141  A    between atoms: _345  and  _347
REMARK  142  A    between atoms: _347  and  _348
REMARK  143  A    between atoms: _347  and  _350
REMARK  144  A    between atoms: _350  and  _351
REMARK  145  A    between atoms: _354  and  _356
REMARK  146  A    between atoms: _356  and  _357
REMARK  147  A    between atoms: _356  and  _359
REMARK  148  A    between atoms: _359  and  _360
REMARK  149  A    between atoms: _363  and  _365
REMARK  150  A    between atoms: _365  and  _366
REMARK  151  A    between atoms: _365  and  _368
REMARK  152  A    between atoms: _371  and  _373
REMARK  153  A    between atoms: _373  and  _374
REMARK  154  A    between atoms: _373  and  _376
REMARK  155  A    between atoms: _376  and  _377
REMARK  156  A    between atoms: _380  and  _382
REMARK  157  A    between atoms: _382  and  _383
REMARK  158  A    between atoms: _382  and  _385
REMARK  159  A    between atoms: _385  and  _386
REMARK  160  A    between atoms: _386  and  _387
REMARK  161  A    between atoms: _387  and  _388
REMARK  162  A    between atoms: _388  and  _389
REMARK  163  A    between atoms: _393  and  _395
REMARK  164  A    between atoms: _395  and  _396
REMARK  165  A    between atoms: _395  and  _398
REMARK  166  A    between atoms: _398  and  _399
REMARK  167  A    between atoms: _399  and  _400
REMARK  168  A    between atoms: _402  and  _404
REMARK  169  A    between atoms: _404  and  _405
REMARK  170  A    between atoms: _404  and  _407
REMARK  171  A    between atoms: _407  and  _408
REMARK  172  A    between atoms: _411  and  _413
REMARK  173  A    between atoms: _413  and  _414
REMARK  174  A    between atoms: _416  and  _418
REMARK  175  A    between atoms: _418  and  _419
REMARK  176  A    between atoms: _421  and  _423
REMARK  177  A    between atoms: _423  and  _424
REMARK  178  A    between atoms: _423  and  _426
REMARK  179  A    between atoms: _426  and  _427
REMARK  180  A    between atoms: _430  and  _432
REMARK  181  A    between atoms: _432  and  _433
REMARK  182  A    between atoms: _435  and  _437
REMARK  183  A    between atoms: _437  and  _438
REMARK  184  A    between atoms: _440  and  _442
REMARK  185  A    between atoms: _442  and  _443
REMARK  186  A    between atoms: _442  and  _445
REMARK  187  A    between atoms: _445  and  _446
REMARK  188  A    between atoms: _452  and  _454
REMARK  189  A    between atoms: _454  and  _455
REMARK  190  A    between atoms: _454  and  _457
REMARK  191  A    between atoms: _457  and  _458
REMARK  192  A    between atoms: _461  and  _463
REMARK  193  A    between atoms: _463  and  _464
REMARK  194  A    between atoms: _463  and  _466
REMARK  195  A    between atoms: _469  and  _471
REMARK  196  A    between atoms: _471  and  _472
REMARK  197  A    between atoms: _471  and  _474
REMARK  198  A    between atoms: _474  and  _475
REMARK  199  A    between atoms: _479  and  _480
REMARK  200  A    between atoms: _485  and  _487
REMARK  201  A    between atoms: _487  and  _488
REMARK  202  A    between atoms: _487  and  _490
REMARK  203  A    between atoms: _490  and  _491
REMARK  204  A    between atoms: _495  and  _496
REMARK  205  A    between atoms: _501  and  _503
REMARK  206  A    between atoms: _503  and  _504
REMARK  207  A    between atoms: _503  and  _506
REMARK  208  A    between atoms: _509  and  _511
REMARK  209  A    between atoms: _511  and  _512
REMARK  210  A    between atoms: _511  and  _514
REMARK  211  A    between atoms: _514  and  _515
REMARK  212  A    between atoms: _520  and  _522
REMARK  213  A    between atoms: _522  and  _523
REMARK  214  A    between atoms: _522  and  _525
REMARK  215  A    between atoms: _525  and  _526
REMARK  216  A    between atoms: _529  and  _531
REMARK  217  A    between atoms: _531  and  _532
REMARK  218  A    between atoms: _531  and  _534
REMARK  219  A    between atoms: _534  and  _535
REMARK  220  A    between atoms: _538  and  _540
REMARK  221  A    between atoms: _540  and  _541
REMARK  222  A    between atoms: _543  and  _545
REMARK  223  A    between atoms: _545  and  _546
REMARK  224  A    between atoms: _545  and  _548
REMARK  225  A    between atoms: _548  and  _549
REMARK  226  A    between atoms: _549  and  _550
REMARK  227  A    between atoms: _550  and  _551
REMARK  228  A    between atoms: _560  and  _562
REMARK  229  A    between atoms: _562  and  _563
REMARK  230  A    between atoms: _562  and  _565
REMARK  231  A    between atoms: _565  and  _566
REMARK                            x       y       z     vdW  Elec       q    Type
REMARK                         _______ _______ _______ _____ _____    ______ ____
ROOT
ATOM      1  C   GLY A   5      21.033  24.986  15.330  0.00  0.00    +0.243 C 
ATOM      2  N   ALA A   6      22.310  24.784  15.623  0.00  0.00    -0.297 N 
ATOM      3  H   ALA A   6      22.580  24.550  16.600  0.00  0.00    +0.150 HD
ATOM      4  O   GLY A   5      20.662  25.260  14.197  0.00  0.00    -0.273 OA
ENDROOT
BRANCH   2   5
ATOM      5  CA  ALA A   6      23.343  24.884  14.598  0.00  0.00    +0.149 C 
ATOM      6  CB  ALA A   6      24.386  25.895  15.019  0.00  0.00    +0.031 C 
BRANCH   5   7
ATOM      7  C   ALA A   6      23.984  23.530  14.374  0.00  0.00    +0.241 C 
ATOM      8  O   ALA A   6      24.475  22.927  15.321  0.00  0.00    -0.273 OA
ATOM      9  N   ASP A   7      24.015  23.070  13.121  0.00  0.00    -0.297 N 
ATOM     10  H   ASP A   7      23.515  23.598  12.377  0.00  0.00    +0.150 HD
BRANCH   9  11
ATOM     11  CA  ASP A   7      24.735  21.838  12.761  0.00  0.00    +0.160 C 
BRANCH  11  12
ATOM     12  C   ASP A   7      26.245  22.002  12.945  0.00  0.00    +0.241 C 
ATOM     13  O   ASP A   7      26.963  21.041  13.272  0.00  0.00    -0.273 OA
ATOM     14  N   ASP A   8      26.727  23.212  12.677  0.00  0.00    -0.297 N 
ATOM     15  H   ASP A   8      26.060  24.000  12.551  0.00  0.00    +0.150 HD
BRANCH  14  16
ATOM     16  CA  ASP A   8      28.150  23.474  12.554  0.00  0.00    +0.160 C 
BRANCH  16  17
ATOM     17  C   ASP A   8      28.567  24.535  13.565  0.00  0.00    +0.241 C 
ATOM     18  O   ASP A   8      27.722  25.249  14.110  0.00  0.00    -0.273 OA
ATOM     19  N   THR A   9      29.872  24.617  13.800  0.00  0.00    -0.295 N 
ATOM     20  H   THR A   9      30.490  23.890  13.387  0.00  0.00    +0.150 HD
BRANCH  19  21
ATOM     21  CA  THR A   9      30.490  25.669  14.605  0.00  0.00    +0.176 C 
BRANCH  21  22
ATOM     22  C   THR A   9      31.017  26.751  13.660  0.00  0.00    +0.243 C 
ATOM     23  N   VAL A  10      30.592  27.990  13.894  0.00  0.00    -0.298 N 
ATOM     24  H   VAL A  10      29.945  28.160  14.690  0.00  0.00    +0.150 HD
ATOM     25  O   THR A   9      31.773  26.468  12.712  0.00  0.00    -0.273 OA
BRANCH  23  26
ATOM     26  CA  VAL A  10      31.005  29.109  13.072  0.00  0.00    +0.137 C 
BRANCH  26  27
ATOM     27  CB  VAL A  10      29.847  29.658  12.184  0.00  0.00    +0.026 C 
ATOM     28  CG2 VAL A  10      29.025  28.530  11.614  0.00  0.00    +0.002 C 
ATOM     29  CG1 VAL A  10      30.413  30.546  11.086  0.00  0.00    +0.002 C 
ENDBRANCH  26  27
BRANCH  26  30
ATOM     30  C   VAL A  10      31.494  30.253  13.955  0.00  0.00    +0.227 C 
ATOM     31  O   VAL A  10      30.765  30.730  14.819  0.00  0.00    -0.286 OA
ENDBRANCH  26  30
ENDBRANCH  23  26
ENDBRANCH  21  22
BRANCH  21  32
ATOM     32  CB  THR A   9      31.636  25.075  15.477  0.00  0.00    +0.137 C 
ATOM     33  CG2 THR A   9      32.437  26.137  16.177  0.00  0.00    +0.034 C 
BRANCH  32  34
ATOM     34  OG1 THR A   9      31.078  24.183  16.450  0.00  0.00    -0.382 OA
ATOM     35  HG1 THR A   9      30.599  23.450  15.988  0.00  0.00    +0.210 HD
ENDBRANCH  32  34
ENDBRANCH  21  32
ENDBRANCH  19  21
ENDBRANCH  16  17
BRANCH  16  36
ATOM     36  CB  ASP A   8      28.480  23.993  11.154  0.00  0.00    +0.143 C 
BRANCH  36  37
ATOM     37  CG  ASP A   8      27.911  23.130  10.043  0.00  0.00    +0.367 C 
ATOM     38  OD2 ASP A   8      28.254  21.942   9.953  0.00  0.00    -0.246 OA
ATOM     39  OD1 ASP A   8      27.142  23.670   9.231  0.00  0.00    -0.246 OA
ENDBRANCH  36  37
ENDBRANCH  16  36
ENDBRANCH  14  16
ENDBRANCH  11  12
BRANCH  11  40
ATOM     40  CB  ASP A   7      24.519  21.458  11.289  0.00  0.00    +0.143 C 
BRANCH  40  41
ATOM     41  CG  ASP A   7      23.059  21.249  10.913  0.00  0.00    +0.367 C 
ATOM     42  OD2 ASP A   7      22.177  21.041  11.777  0.00  0.00    -0.246 OA
ATOM     43  OD1 ASP A   7      22.801  21.288   9.698  0.00  0.00    -0.246 OA
ENDBRANCH  40  41
ENDBRANCH  11  40
ENDBRANCH   9  11
ENDBRANCH   5   7
ENDBRANCH   2   5
BRANCH   1  44
ATOM     44  CA  GLY A   5      20.019  24.844  16.449  0.00  0.00    +0.176 C 
BRANCH  44  46
ATOM     45  C   THR A   4      20.903  23.427  18.217  0.00  0.00    +0.243 C 
ATOM     46  N   GLY A   5      20.590  24.637  17.770  0.00  0.00    -0.295 N 
ATOM     47  H   GLY A   5      20.758  25.461  18.382  0.00  0.00    +0.150 HD
ATOM     48  O   THR A   4      20.663  22.409  17.580  0.00  0.00    -0.273 OA
BRANCH  45  49
ATOM     49  CA  THR A   4      21.573  23.351  19.591  0.00  0.00    +0.176 C 
BRANCH  49  51
ATOM     50  C   ASP A   3      23.182  25.190  19.373  0.00  0.00    +0.241 C 
ATOM     51  N   THR A   4      22.131  24.652  19.997  0.00  0.00    -0.295 N 
ATOM     52  H   THR A   4      21.695  25.165  20.790  0.00  0.00    +0.150 HD
ATOM     53  O   ASP A   3      23.734  24.655  18.414  0.00  0.00    -0.273 OA
BRANCH  50  54
ATOM     54  CA  ASP A   3      23.613  26.579  19.851  0.00  0.00    +0.160 C 
BRANCH  54  57
ATOM     55  C   LEU A   2      24.676  26.986  22.009  0.00  0.00    +0.241 C 
ATOM     56  O   LEU A   2      23.628  27.277  22.576  0.00  0.00    -0.273 OA
ATOM     57  N   ASP A   3      24.731  26.506  20.776  0.00  0.00    -0.297 N 
ATOM     58  H   ASP A   3      25.613  26.057  20.456  0.00  0.00    +0.150 HD
BRANCH  55  59
ATOM     59  CA  LEU A   2      26.014  27.180  22.711  0.00  0.00    +0.149 C 
BRANCH  59  61
ATOM     60  C   LEU A   1      26.734  29.286  21.714  0.00  0.00    +0.238 C 
ATOM     61  N   LEU A   2      26.296  28.613  22.776  0.00  0.00    -0.297 N 
ATOM     62  H   LEU A   2      26.151  29.119  23.673  0.00  0.00    +0.150 HD
ATOM     63  O   LEU A   1      27.098  28.733  20.674  0.00  0.00    -0.274 OA
BRANCH  60  64
ATOM     64  CA  LEU A   1      26.792  30.805  21.829  0.00  0.00    +0.145 C 
BRANCH  64  65
ATOM     65  N   LEU A   1      28.126  31.279  21.523  0.00  0.00    -0.238 NA
ATOM     66  H   LEU A   1      28.345  31.523  20.536  0.00  0.00    +0.142 HD
ENDBRANCH  64  65
BRANCH  64  67
ATOM     67  CB  LEU A   1      25.837  31.440  20.826  0.00  0.00    +0.026 C 
BRANCH  67  68
ATOM     68  CG  LEU A   1      24.338  31.428  21.024  0.00  0.00    +0.002 C 
ATOM     69  CD2 LEU A   1      23.938  32.315  22.208  0.00  0.00    +0.000 C 
ATOM     70  CD1 LEU A   1      23.692  31.917  19.721  0.00  0.00    +0.000 C 
ENDBRANCH  67  68
ENDBRANCH  64  67
ENDBRANCH  60  64
ENDBRANCH  59  61
BRANCH  59  71
ATOM     71  CB  LEU A   2      25.959  26.563  24.107  0.00  0.00    +0.029 C 
BRANCH  71  72
ATOM     72  CG  LEU A   2      27.195  26.769  24.980  0.00  0.00    +0.002 C 
ATOM     73  CD2 LEU A   2      27.028  26.042  26.301  0.00  0.00    +0.000 C 
ATOM     74  CD1 LEU A   2      28.434  26.319  24.251  0.00  0.00    +0.000 C 
ENDBRANCH  71  72
ENDBRANCH  59  71
ENDBRANCH  55  59
ENDBRANCH  54  57
BRANCH  54  75
ATOM     75  CB  ASP A   3      24.013  27.460  18.660  0.00  0.00    +0.143 C 
BRANCH  75  76
ATOM     76  CG  ASP A   3      22.840  27.792  17.742  0.00  0.00    +0.367 C 
ATOM     77  OD2 ASP A   3      21.713  27.342  18.005  0.00  0.00    -0.246 OA
ATOM     78  OD1 ASP A   3      23.043  28.523  16.758  0.00  0.00    -0.246 OA
ENDBRANCH  75  76
ENDBRANCH  54  75
ENDBRANCH  50  54
ENDBRANCH  49  51
BRANCH  49  79
ATOM     79  CB  THR A   4      20.544  22.830  20.606  0.00  0.00    +0.137 C 
ATOM     80  CG2 THR A   4      21.193  22.629  21.978  0.00  0.00    +0.034 C 
BRANCH  79  81
ATOM     81  OG1 THR A   4      19.453  23.755  20.707  0.00  0.00    -0.382 OA
ATOM     82  HG1 THR A   4      19.021  23.852  19.821  0.00  0.00    +0.210 HD
ENDBRANCH  79  81
ENDBRANCH  49  79
ENDBRANCH  45  49
ENDBRANCH  44  46
ENDBRANCH   1  44
TORSDOF 35
REMARK  Name = ../refined-set-2016/2q5k/2q5k_pocket.pdb
REMARK  231 active torsions:
REMARK  status: ('A' for Active; 'I' for Inactive)
REMARK    1  A    between atoms: _1  and  _3
REMARK    2  A    between atoms: _3  and  _4
REMARK    3  A    between atoms: _3  and  _6
REMARK    4  A    between atoms: _6  and  _7
REMARK    5  A    between atoms: _7  and  _8
REMARK    6  A    between atoms: _8  and  _9
REMARK    7  A    between atoms: _18  and  _20
REMARK    8  A    between atoms: _20  and  _21
REMARK    9  A    between atoms: _20  and  _23
REMARK   10  A    between atoms: _23  and  _24
REMARK   11  A    between atoms: _27  and  _29
REMARK   12  A    between atoms: _29  and  _30
REMARK   13  A    between atoms: _29  and  _32
REMARK   14  A    between atoms: _32  and  _33
REMARK   15  A    between atoms: _36  and  _38
REMARK   16  A    between atoms: _38  and  _39
REMARK   17  A    between atoms: _38  and  _41
REMARK   18  A    between atoms: _41  and  _42
REMARK   19  A    between atoms: _45  and  _47
REMARK   20  A    between atoms: _47  and  _48
REMARK   21  A    between atoms: _47  and  _50
REMARK   22  A    between atoms: _50  and  _51
REMARK   23  A    between atoms: _54  and  _56
REMARK   24  A    between atoms: _56  and  _57
REMARK   25  A    between atoms: _59  and  _61
REMARK   26  A    between atoms: _61  and  _62
REMARK   27  A    between atoms: _65  and  _67
REMARK   28  A    between atoms: _67  and  _68
REMARK   29  A    between atoms: _67  and  _70
REMARK   30  A    between atoms: _70  and  _71
REMARK   31  A    between atoms: _74  and  _76
REMARK   32  A    between atoms: _76  and  _77
REMARK   33  A    between atoms: _76  and  _79
REMARK   34  A    between atoms: _79  and  _80
REMARK   35  A    between atoms: _83  and  _85
REMARK   36  A    between atoms: _85  and  _86
REMARK   37  A    between atoms: _85  and  _88
REMARK   38  A    between atoms: _88  and  _89
REMARK   39  A    between atoms: _92  and  _94
REMARK   40  A    between atoms: _94  and  _95
REMARK   41  A    between atoms: _94  and  _97
REMARK   42  A    between atoms: _100  and  _102
REMARK   43  A    between atoms: _102  and  _103
REMARK   44  A    between atoms: _102  and  _105
REMARK   45  A    between atoms: _105  and  _106
REMARK   46  A    between atoms: _106  and  _107
REMARK   47  A    between atoms: _107  and  _108
REMARK   48  A    between atoms: _108  and  _109
REMARK   49  A    between atoms: _113  and  _115
REMARK   50  A    between atoms: _115  and  _116
REMARK   51  A    between atoms: _115  and  _118
REMARK   52  A    between atoms: _118  and  _119
REMARK   53  A    between atoms: _119  and  _120
REMARK   54  A    between atoms: _122  and  _124
REMARK   55  A    between atoms: _124  and  _125
REMARK   56  A    between atoms: _124  and  _127
REMARK   57  A    between atoms: _127  and  _128
REMARK   58  A    between atoms: _131  and  _133
REMARK   59  A    between atoms: _133  and  _134
REMARK   60  A    between atoms: _136  and  _138
REMARK   61  A    between atoms: _138  and  _139
REMARK   62  A    between atoms: _141  and  _143
REMARK   63  A    between atoms: _143  and  _144
REMARK   64  A    between atoms: _143  and  _146
REMARK   65  A    between atoms: _146  and  _147
REMARK   66  A    between atoms: _150  and  _152
REMARK   67  A    between atoms: _152  and  _153
REMARK   68  A    between atoms: _155  and  _157
REMARK   69  A    between atoms: _157  and  _158
REMARK   70  A    between atoms: _160  and  _162
REMARK   71  A    between atoms: _162  and  _163
REMARK   72  A    between atoms: _162  and  _165
REMARK   73  A    between atoms: _165  and  _166
REMARK   74  A    between atoms: _172  and  _174
REMARK   75  A    between atoms: _174  and  _175
REMARK   76  A    between atoms: _174  and  _177
REMARK   77  A    between atoms: _177  and  _178
REMARK   78  A    between atoms: _181  and  _183
REMARK   79  A    between atoms: _183  and  _184
REMARK   80  A    between atoms: _183  and  _186
REMARK   81  A    between atoms: _186  and  _187
REMARK   82  A    between atoms: _191  and  _192
REMARK   83  A    between atoms: _197  and  _199
REMARK   84  A    between atoms: _199  and  _200
REMARK   85  A    between atoms: _199  and  _202
REMARK   86  A    between atoms: _202  and  _203
REMARK   87  A    between atoms: _207  and  _208
REMARK   88  A    between atoms: _213  and  _215
REMARK   89  A    between atoms: _215  and  _216
REMARK   90  A    between atoms: _215  and  _218
REMARK   91  A    between atoms: _221  and  _223
REMARK   92  A    between atoms: _223  and  _224
REMARK   93  A    between atoms: _223  and  _226
REMARK   94  A    between atoms: _226  and  _227
REMARK   95  A    between atoms: _232  and  _234
REMARK   96  A    between atoms: _234  and  _235
REMARK   97  A    between atoms: _234  and  _237
REMARK   98  A    between atoms: _237  and  _238
REMARK   99  A    between atoms: _241  and  _243
REMARK  100  A    between atoms: _243  and  _244
REMARK  101  A    between atoms: _243  and  _246
REMARK  102  A    between atoms: _246  and  _247
REMARK  103  A    between atoms: _250  and  _252
REMARK  104  A    between atoms: _252  and  _253
REMARK  105  A    between atoms: _255  and  _257
REMARK  106  A    between atoms: _257  and  _258
REMARK  107  A    between atoms: _257  and  _260
REMARK  108  A    between atoms: _260  and  _261
REMARK  109  A    between atoms: _261  and  _262
REMARK  110  A    between atoms: _262  and  _263
REMARK  111  A    between atoms: _272  and  _274
REMARK  112  A    between atoms: _274  and  _275
REMARK  113  A    between atoms: _274  and  _277
REMARK  114  A    between atoms: _277  and  _278
REMARK  115  A    between atoms: _278  and  _279
REMARK  116  A    between atoms: _279  and  _280
REMARK  117  A    between atoms: _289  and  _291
REMARK  118  A    between atoms: _291  and  _292
REMARK  119  A    between atoms: _291  and  _294
REMARK  120  A    between atoms: _294  and  _295
REMARK  121  A    between atoms: _298  and  _300
REMARK  122  A    between atoms: _300  and  _301
REMARK  123  A    between atoms: _300  and  _303
REMARK  124  A    between atoms: _303  and  _304
REMARK  125  A    between atoms: _307  and  _309
REMARK  126  A    between atoms: _309  and  _310
REMARK  127  A    between atoms: _309  and  _312
REMARK  128  A    between atoms: _312  and  _313
REMARK  129  A    between atoms: _316  and  _318
REMARK  130  A    between atoms: _318  and  _319
REMARK  131  A    between atoms: _318  and  _321
REMARK  132  A    between atoms: _321  and  _322
REMARK  133  A    between atoms: _325  and  _327
REMARK  134  A    between atoms: _327  and  _328
REMARK  135  A    between atoms: _330  and  _332
REMARK  136  A    between atoms: _332  and  _333
REMARK  137  A    between atoms: _336  and  _338
REMARK  138  A    between atoms: _338  and  _339
REMARK  139  A    between atoms: _338  and  _341
REMARK  140  A    between atoms: _341  and  _342
REMARK  141  A    between atoms: _345  and  _347
REMARK  142  A    between atoms: _347  and  _348
REMARK  143  A    between atoms: _347  and  _350
REMARK  144  A    between atoms: _350  and  _351
REMARK  145  A    between atoms: _354  and  _356
REMARK  146  A    between atoms: _356  and  _357
REMARK  147  A    between atoms: _356  and  _359
REMARK  148  A    between atoms: _359  and  _360
REMARK  149  A    between atoms: _363  and  _365
REMARK  150  A    between atoms: _365  and  _366
REMARK  151  A    between atoms: _365  and  _368
REMARK  152  A    between atoms: _371  and  _373
REMARK  153  A    between atoms: _373  and  _374
REMARK  154  A    between atoms: _373  and  _376
REMARK  155  A    between atoms: _376  and  _377
REMARK  156  A    between atoms: _380  and  _382
REMARK  157  A    between atoms: _382  and  _383
REMARK  158  A    between atoms: _382  and  _385
REMARK  159  A    between atoms: _385  and  _386
REMARK  160  A    between atoms: _386  and  _387
REMARK  161  A    between atoms: _387  and  _388
REMARK  162  A    between atoms: _388  and  _389
REMARK  163  A    between atoms: _393  and  _395
REMARK  164  A    between atoms: _395  and  _396
REMARK  165  A    between atoms: _395  and  _398
REMARK  166  A    between atoms: _398  and  _399
REMARK  167  A    between atoms: _399  and  _400
REMARK  168  A    between atoms: _402  and  _404
REMARK  169  A    between atoms: _404  and  _405
REMARK  170  A    between atoms: _404  and  _407
REMARK  171  A    between atoms: _407  and  _408
REMARK  172  A    between atoms: _411  and  _413
REMARK  173  A    between atoms: _413  and  _414
REMARK  174  A    between atoms: _416  and  _418
REMARK  175  A    between atoms: _418  and  _419
REMARK  176  A    between atoms: _421  and  _423
REMARK  177  A    between atoms: _423  and  _424
REMARK  178  A    between atoms: _423  and  _426
REMARK  179  A    between atoms: _426  and  _427
REMARK  180  A    between atoms: _430  and  _432
REMARK  181  A    between atoms: _432  and  _433
REMARK  182  A    between atoms: _435  and  _437
REMARK  183  A    between atoms: _437  and  _438
REMARK  184  A    between atoms: _440  and  _442
REMARK  185  A    between atoms: _442  and  _443
REMARK  186  A    between atoms: _442  and  _445
REMARK  187  A    between atoms: _445  and  _446
REMARK  188  A    between atoms: _452  and  _454
REMARK  189  A    between atoms: _454  and  _455
REMARK  190  A    between atoms: _454  and  _457
REMARK  191  A    between atoms: _457  and  _458
REMARK  192  A    between atoms: _461  and  _463
REMARK  193  A    between atoms: _463  and  _464
REMARK  194  A    between atoms: _463  and  _466
REMARK  195  A    between atoms: _469  and  _471
REMARK  196  A    between atoms: _471  and  _472
REMARK  197  A    between atoms: _471  and  _474
REMARK  198  A    between atoms: _474  and  _475
REMARK  199  A    between atoms: _479  and  _480
REMARK  200  A    between atoms: _485  and  _487
REMARK  201  A    between atoms: _487  and  _488
REMARK  202  A    between atoms: _487  and  _490
REMARK  203  A    between atoms: _490  and  _491
REMARK  204  A    between atoms: _495  and  _496
REMARK  205  A    between atoms: _501  and  _503
REMARK  206  A    between atoms: _503  and  _504
REMARK  207  A    between atoms: _503  and  _506
REMARK  208  A    between atoms: _509  and  _511
REMARK  209  A    between atoms: _511  and  _512
REMARK  210  A    between atoms: _511  and  _514
REMARK  211  A    between atoms: _514  and  _515
REMARK  212  A    between atoms: _520  and  _522
REMARK  213  A    between atoms: _522  and  _523
REMARK  214  A    between atoms: _522  and  _525
REMARK  215  A    between atoms: _525  and  _526
REMARK  216  A    between atoms: _529  and  _531
REMARK  217  A    between atoms: _531  and  _532
REMARK  218  A    between atoms: _531  and  _534
REMARK  219  A    between atoms: _534  and  _535
REMARK  220  A    between atoms: _538  and  _540
REMARK  221  A    between atoms: _540  and  _541
REMARK  222  A    between atoms: _543  and  _545
REMARK  223  A    between atoms: _545  and  _546
REMARK  224  A    between atoms: _545  and  _548
REMARK  225  A    between atoms: _548  and  _549
REMARK  226  A    between atoms: _549  and  _550
REMARK  227  A    between atoms: _550  and  _551
REMARK  228  A    between atoms: _560  and  _562
REMARK  229  A    between atoms: _562  and  _563
REMARK  230  A    between atoms: _562  and  _565
REMARK  231  A    between atoms: _565  and  _566
REMARK                            x       y       z     vdW  Elec       q    Type
REMARK                         _______ _______ _______ _____ _____    ______ ____
ROOT
ATOM      1  C   GLY A   5      19.129  31.041   6.953  0.00  0.00    +0.243 C 
ATOM      2  N   ILE A   6      18.677  31.521   8.107  0.00  0.00    -0.297 N 
ATOM      3  H   ILE A   6      18.995  31.094   9.000  0.00  0.00    +0.150 HD
ATOM      4  O   GLY A   5      18.722  31.442   5.867  0.00  0.00    -0.273 OA
ENDROOT
BRANCH   2   5
ATOM      5  CA  ILE A   6      17.742  32.638   8.137  0.00  0.00    +0.149 C 
BRANCH   5   6
ATOM      6  C   ILE A   6      18.487  33.875   7.625  0.00  0.00    +0.241 C 
ATOM      7  O   ILE A   6      19.596  34.158   8.071  0.00  0.00    -0.273 OA
ATOM      8  N   GLY A   7      17.891  34.568   6.656  0.00  0.00    -0.295 N 
ATOM      9  H   GLY A   7      16.946  34.273   6.338  0.00  0.00    +0.150 HD
BRANCH   8  10
ATOM     10  CA  GLY A   7      18.518  35.733   6.020  0.00  0.00    +0.176 C 
BRANCH  10  11
ATOM     11  C   GLY A   7      19.434  35.412   4.845  0.00  0.00    +0.243 C 
ATOM     12  N   GLY A   8      19.599  34.129   4.529  0.00  0.00    -0.295 N 
ATOM     13  H   GLY A   8      19.177  33.399   5.138  0.00  0.00    +0.150 HD
ATOM     14  O   GLY A   7      19.993  36.326   4.230  0.00  0.00    -0.273 OA
BRANCH  12  15
ATOM     15  CA  GLY A   8      20.355  33.721   3.354  0.00  0.00    +0.176 C 
BRANCH  15  16
ATOM     16  C   GLY A   8      21.718  33.102   3.654  0.00  0.00    +0.243 C 
ATOM     17  O   GLY A   8      21.941  32.533   4.728  0.00  0.00    -0.273 OA
ATOM     18  N   PHE A   9      22.619  33.246   2.688  0.00  0.00    -0.297 N 
ATOM     19  H   PHE A   9      22.404  33.900   1.909  0.00  0.00    +0.150 HD
BRANCH  18  20
ATOM     20  CA  PHE A   9      23.891  32.538   2.661  0.00  0.00    +0.153 C 
BRANCH  20  21
ATOM     21  C   PHE A   9      25.088  33.421   2.972  0.00  0.00    +0.241 C 
ATOM     22  N   ILE A  10      26.096  32.836   3.632  0.00  0.00    -0.298 N 
ATOM     23  H   ILE A  10      25.946  31.895   4.048  0.00  0.00    +0.150 HD
ATOM     24  O   PHE A   9      25.100  34.598   2.603  0.00  0.00    -0.273 OA
BRANCH  22  25
ATOM     25  CA  ILE A  10      27.405  33.480   3.787  0.00  0.00    +0.137 C 
BRANCH  25  26
ATOM     26  C   ILE A  10      28.535  32.569   3.303  0.00  0.00    +0.227 C 
ATOM     27  O   ILE A  10      28.393  31.346   3.276  0.00  0.00    -0.286 OA
ENDBRANCH  25  26
BRANCH  25  28
ATOM     28  CB  ILE A  10      27.692  33.918   5.259  0.00  0.00    +0.026 C 
ATOM     29  CG2 ILE A  10      26.698  34.996   5.706  0.00  0.00    +0.002 C 
BRANCH  28  30
ATOM     30  CG1 ILE A  10      27.694  32.710   6.200  0.00  0.00    +0.002 C 
ATOM     31  CD1 ILE A  10      28.097  33.038   7.624  0.00  0.00    +0.000 C 
ENDBRANCH  28  30
ENDBRANCH  25  28
ENDBRANCH  22  25
ENDBRANCH  20  21
BRANCH  20  32
ATOM     32  CB  PHE A   9      24.096  31.925   1.275  0.00  0.00    +0.055 C 
BRANCH  32  33
ATOM     33  CG  PHE A   9      23.374  30.640   1.083  0.00  0.00    -0.020 A 
ATOM     34  CD2 PHE A   9      24.054  29.435   1.143  0.00  0.00    -0.004 A 
ATOM     35  CE2 PHE A   9      23.381  28.232   0.972  0.00  0.00    -0.000 A 
ATOM     36  CZ  PHE A   9      22.007  28.227   0.740  0.00  0.00    -0.000 A 
ATOM     37  CE1 PHE A   9      21.320  29.424   0.684  0.00  0.00    -0.000 A 
ATOM     38  CD1 PHE A   9      22.003  30.628   0.863  0.00  0.00    -0.004 A 
ENDBRANCH  32  33
ENDBRANCH  20  32
ENDBRANCH  18  20
ENDBRANCH  15  16
ENDBRANCH  12  15
ENDBRANCH  10  11
ENDBRANCH   8  10
ENDBRANCH   5   6
BRANCH   5  39
ATOM     39  CB  ILE A   6      17.133  32.825   9.547  0.00  0.00    +0.027 C 
ATOM     40  CG2 ILE A   6      16.524  34.229   9.715  0.00  0.00    +0.002 C 
BRANCH  39  41
ATOM     41  CG1 ILE A   6      16.095  31.725   9.781  0.00  0.00    +0.002 C 
ATOM     42  CD1 ILE A   6      15.431  31.758  11.109  0.00  0.00    +0.000 C 
ENDBRANCH  39  41
ENDBRANCH   5  39
ENDBRANCH   2   5
BRANCH   1  43
ATOM     43  CA  GLY A   5      20.152  29.926   7.044  0.00  0.00    +0.176 C 
BRANCH  43  45
ATOM     44  C   GLY A   4      21.730  28.966   5.462  0.00  0.00    +0.243 C 
ATOM     45  N   GLY A   5      21.169  30.034   6.002  0.00  0.00    -0.295 N 
ATOM     46  H   GLY A   5      21.460  30.978   5.676  0.00  0.00    +0.150 HD
ATOM     47  O   GLY A   4      21.529  27.813   5.862  0.00  0.00    -0.273 OA
BRANCH  44  48
ATOM     48  CA  GLY A   4      22.645  29.236   4.292  0.00  0.00    +0.176 C 
BRANCH  48  50
ATOM     49  C   ILE A   3      25.059  29.020   4.379  0.00  0.00    +0.241 C 
ATOM     50  N   GLY A   4      23.863  28.453   4.359  0.00  0.00    -0.295 N 
ATOM     51  H   GLY A   4      23.795  27.416   4.392  0.00  0.00    +0.150 HD
ATOM     52  O   ILE A   3      25.222  30.247   4.349  0.00  0.00    -0.273 OA
BRANCH  49  53
ATOM     53  CA  ILE A   3      26.249  28.050   4.420  0.00  0.00    +0.149 C 
BRANCH  53  55
ATOM     54  C   MET A   2      27.917  27.747   2.650  0.00  0.00    +0.241 C 
ATOM     55  N   ILE A   3      27.326  28.529   3.551  0.00  0.00    -0.297 N 
ATOM     56  H   ILE A   3      27.641  29.516   3.641  0.00  0.00    +0.150 HD
ATOM     57  O   MET A   2      27.707  26.534   2.548  0.00  0.00    -0.273 OA
BRANCH  54  58
ATOM     58  CA  MET A   2      28.907  28.434   1.723  0.00  0.00    +0.149 C 
BRANCH  58  61
ATOM     59  C   LYS A   1      31.267  27.900   1.922  0.00  0.00    +0.238 C 
ATOM     60  O   LYS A   1      31.558  29.046   2.284  0.00  0.00    -0.274 OA
ATOM     61  N   MET A   2      30.045  27.552   1.526  0.00  0.00    -0.297 N 
ATOM     62  H   MET A   2      29.902  26.630   1.066  0.00  0.00    +0.150 HD
BRANCH  59  63
ATOM     63  CA  LYS A   1      32.339  26.811   1.858  0.00  0.00    +0.145 C 
BRANCH  63  64
ATOM     64  N   LYS A   1      33.641  27.444   1.653  0.00  0.00    -0.238 NA
ATOM     65  H   LYS A   1      33.804  28.383   2.069  0.00  0.00    +0.142 HD
ENDBRANCH  63  64
BRANCH  63  66
ATOM     66  CB  LYS A   1      32.353  26.000   3.160  0.00  0.00    +0.026 C 
BRANCH  66  67
ATOM     67  CG  LYS A   1      31.143  25.093   3.401  0.00  0.00    -0.000 C 
BRANCH  67  68
ATOM     68  CD  LYS A   1      31.219  24.433   4.787  0.00  0.00    -0.024 C 
BRANCH  68  69
ATOM     69  CE  LYS A   1      30.016  23.567   5.082  0.00  0.00    -0.086 C 
BRANCH  69  70
ATOM     70  NZ  LYS A   1      29.928  22.429   4.128  0.00  0.00    +0.380 N 
ATOM     71  HZ1 LYS A   1      29.093  21.852   4.355  0.00  0.00    -0.089 HD
ATOM     72  HZ2 LYS A   1      30.785  21.846   4.206  0.00  0.00    -0.089 HD
ATOM     73  HZ3 LYS A   1      29.844  22.796   3.159  0.00  0.00    -0.089 HD
ENDBRANCH  69  70
ENDBRANCH  68  69
ENDBRANCH  67  68
ENDBRANCH  66  67
ENDBRANCH  63  66
ENDBRANCH  59  63
ENDBRANCH  58  61
BRANCH  58  74
ATOM     74  CB  MET A   2      28.236  28.782   0.397  0.00  0.00    +0.041 C 
BRANCH  74  75
ATOM     75  CG  MET A   2      29.064  29.702  -0.514  0.00  0.00    +0.060 C 
BRANCH  75  76
ATOM     76  SD  MET A   2      28.234  29.959  -2.098  0.00  0.00    -0.139 S 
ATOM     77  CE  MET A   2      26.871  31.005  -1.584  0.00  0.00    +0.069 C 
ENDBRANCH  75  76
ENDBRANCH  74  75
ENDBRANCH  58  74
ENDBRANCH  54  58
ENDBRANCH  53  55
BRANCH  53  78
ATOM     78  CB  ILE A   3      26.735  27.825   5.887  0.00  0.00    +0.027 C 
ATOM     79  CG2 ILE A   3      27.786  26.728   5.925  0.00  0.00    +0.002 C 
BRANCH  78  80
ATOM     80  CG1 ILE A   3      27.310  29.112   6.491  0.00  0.00    +0.002 C 
ATOM     81  CD1 ILE A   3      27.580  29.018   7.973  0.00  0.00    +0.000 C 
ENDBRANCH  78  80
ENDBRANCH  53  78
ENDBRANCH  49  53
ENDBRANCH  48  50
ENDBRANCH  44  48
ENDBRANCH  43  45
ENDBRANCH   1  43
TORSDOF 36
REMARK  Name = ../refined-set-2016/2q5k/2q5k_pocket.pdb
REMARK  231 active torsions:
REMARK  status: ('A' for Active; 'I' for Inactive)
REMARK    1  A    between atoms: _1  and  _3
REMARK    2  A    between atoms: _3  and  _4
REMARK    3  A    between atoms: _3  and  _6
REMARK    4  A    between atoms: _6  and  _7
REMARK    5  A    between atoms: _7  and  _8
REMARK    6  A    between atoms: _8  and  _9
REMARK    7  A    between atoms: _18  and  _20
REMARK    8  A    between atoms: _20  and  _21
REMARK    9  A    between atoms: _20  and  _23
REMARK   10  A    between atoms: _23  and  _24
REMARK   11  A    between atoms: _27  and  _29
REMARK   12  A    between atoms: _29  and  _30
REMARK   13  A    between atoms: _29  and  _32
REMARK   14  A    between atoms: _32  and  _33
REMARK   15  A    between atoms: _36  and  _38
REMARK   16  A    between atoms: _38  and  _39
REMARK   17  A    between atoms: _38  and  _41
REMARK   18  A    between atoms: _41  and  _42
REMARK   19  A    between atoms: _45  and  _47
REMARK   20  A    between atoms: _47  and  _48
REMARK   21  A    between atoms: _47  and  _50
REMARK   22  A    between atoms: _50  and  _51
REMARK   23  A    between atoms: _54  and  _56
REMARK   24  A    between atoms: _56  and  _57
REMARK   25  A    between atoms: _59  and  _61
REMARK   26  A    between atoms: _61  and  _62
REMARK   27  A    between atoms: _65  and  _67
REMARK   28  A    between atoms: _67  and  _68
REMARK   29  A    between atoms: _67  and  _70
REMARK   30  A    between atoms: _70  and  _71
REMARK   31  A    between atoms: _74  and  _76
REMARK   32  A    between atoms: _76  and  _77
REMARK   33  A    between atoms: _76  and  _79
REMARK   34  A    between atoms: _79  and  _80
REMARK   35  A    between atoms: _83  and  _85
REMARK   36  A    between atoms: _85  and  _86
REMARK   37  A    between atoms: _85  and  _88
REMARK   38  A    between atoms: _88  and  _89
REMARK   39  A    between atoms: _92  and  _94
REMARK   40  A    between atoms: _94  and  _95
REMARK   41  A    between atoms: _94  and  _97
REMARK   42  A    between atoms: _100  and  _102
REMARK   43  A    between atoms: _102  and  _103
REMARK   44  A    between atoms: _102  and  _105
REMARK   45  A    between atoms: _105  and  _106
REMARK   46  A    between atoms: _106  and  _107
REMARK   47  A    between atoms: _107  and  _108
REMARK   48  A    between atoms: _108  and  _109
REMARK   49  A    between atoms: _113  and  _115
REMARK   50  A    between atoms: _115  and  _116
REMARK   51  A    between atoms: _115  and  _118
REMARK   52  A    between atoms: _118  and  _119
REMARK   53  A    between atoms: _119  and  _120
REMARK   54  A    between atoms: _122  and  _124
REMARK   55  A    between atoms: _124  and  _125
REMARK   56  A    between atoms: _124  and  _127
REMARK   57  A    between atoms: _127  and  _128
REMARK   58  A    between atoms: _131  and  _133
REMARK   59  A    between atoms: _133  and  _134
REMARK   60  A    between atoms: _136  and  _138
REMARK   61  A    between atoms: _138  and  _139
REMARK   62  A    between atoms: _141  and  _143
REMARK   63  A    between atoms: _143  and  _144
REMARK   64  A    between atoms: _143  and  _146
REMARK   65  A    between atoms: _146  and  _147
REMARK   66  A    between atoms: _150  and  _152
REMARK   67  A    between atoms: _152  and  _153
REMARK   68  A    between atoms: _155  and  _157
REMARK   69  A    between atoms: _157  and  _158
REMARK   70  A    between atoms: _160  and  _162
REMARK   71  A    between atoms: _162  and  _163
REMARK   72  A    between atoms: _162  and  _165
REMARK   73  A    between atoms: _165  and  _166
REMARK   74  A    between atoms: _172  and  _174
REMARK   75  A    between atoms: _174  and  _175
REMARK   76  A    between atoms: _174  and  _177
REMARK   77  A    between atoms: _177  and  _178
REMARK   78  A    between atoms: _181  and  _183
REMARK   79  A    between atoms: _183  and  _184
REMARK   80  A    between atoms: _183  and  _186
REMARK   81  A    between atoms: _186  and  _187
REMARK   82  A    between atoms: _191  and  _192
REMARK   83  A    between atoms: _197  and  _199
REMARK   84  A    between atoms: _199  and  _200
REMARK   85  A    between atoms: _199  and  _202
REMARK   86  A    between atoms: _202  and  _203
REMARK   87  A    between atoms: _207  and  _208
REMARK   88  A    between atoms: _213  and  _215
REMARK   89  A    between atoms: _215  and  _216
REMARK   90  A    between atoms: _215  and  _218
REMARK   91  A    between atoms: _221  and  _223
REMARK   92  A    between atoms: _223  and  _224
REMARK   93  A    between atoms: _223  and  _226
REMARK   94  A    between atoms: _226  and  _227
REMARK   95  A    between atoms: _232  and  _234
REMARK   96  A    between atoms: _234  and  _235
REMARK   97  A    between atoms: _234  and  _237
REMARK   98  A    between atoms: _237  and  _238
REMARK   99  A    between atoms: _241  and  _243
REMARK  100  A    between atoms: _243  and  _244
REMARK  101  A    between atoms: _243  and  _246
REMARK  102  A    between atoms: _246  and  _247
REMARK  103  A    between atoms: _250  and  _252
REMARK  104  A    between atoms: _252  and  _253
REMARK  105  A    between atoms: _255  and  _257
REMARK  106  A    between atoms: _257  and  _258
REMARK  107  A    between atoms: _257  and  _260
REMARK  108  A    between atoms: _260  and  _261
REMARK  109  A    between atoms: _261  and  _262
REMARK  110  A    between atoms: _262  and  _263
REMARK  111  A    between atoms: _272  and  _274
REMARK  112  A    between atoms: _274  and  _275
REMARK  113  A    between atoms: _274  and  _277
REMARK  114  A    between atoms: _277  and  _278
REMARK  115  A    between atoms: _278  and  _279
REMARK  116  A    between atoms: _279  and  _280
REMARK  117  A    between atoms: _289  and  _291
REMARK  118  A    between atoms: _291  and  _292
REMARK  119  A    between atoms: _291  and  _294
REMARK  120  A    between atoms: _294  and  _295
REMARK  121  A    between atoms: _298  and  _300
REMARK  122  A    between atoms: _300  and  _301
REMARK  123  A    between atoms: _300  and  _303
REMARK  124  A    between atoms: _303  and  _304
REMARK  125  A    between atoms: _307  and  _309
REMARK  126  A    between atoms: _309  and  _310
REMARK  127  A    between atoms: _309  and  _312
REMARK  128  A    between atoms: _312  and  _313
REMARK  129  A    between atoms: _316  and  _318
REMARK  130  A    between atoms: _318  and  _319
REMARK  131  A    between atoms: _318  and  _321
REMARK  132  A    between atoms: _321  and  _322
REMARK  133  A    between atoms: _325  and  _327
REMARK  134  A    between atoms: _327  and  _328
REMARK  135  A    between atoms: _330  and  _332
REMARK  136  A    between atoms: _332  and  _333
REMARK  137  A    between atoms: _336  and  _338
REMARK  138  A    between atoms: _338  and  _339
REMARK  139  A    between atoms: _338  and  _341
REMARK  140  A    between atoms: _341  and  _342
REMARK  141  A    between atoms: _345  and  _347
REMARK  142  A    between atoms: _347  and  _348
REMARK  143  A    between atoms: _347  and  _350
REMARK  144  A    between atoms: _350  and  _351
REMARK  145  A    between atoms: _354  and  _356
REMARK  146  A    between atoms: _356  and  _357
REMARK  147  A    between atoms: _356  and  _359
REMARK  148  A    between atoms: _359  and  _360
REMARK  149  A    between atoms: _363  and  _365
REMARK  150  A    between atoms: _365  and  _366
REMARK  151  A    between atoms: _365  and  _368
REMARK  152  A    between atoms: _371  and  _373
REMARK  153  A    between atoms: _373  and  _374
REMARK  154  A    between atoms: _373  and  _376
REMARK  155  A    between atoms: _376  and  _377
REMARK  156  A    between atoms: _380  and  _382
REMARK  157  A    between atoms: _382  and  _383
REMARK  158  A    between atoms: _382  and  _385
REMARK  159  A    between atoms: _385  and  _386
REMARK  160  A    between atoms: _386  and  _387
REMARK  161  A    between atoms: _387  and  _388
REMARK  162  A    between atoms: _388  and  _389
REMARK  163  A    between atoms: _393  and  _395
REMARK  164  A    between atoms: _395  and  _396
REMARK  165  A    between atoms: _395  and  _398
REMARK  166  A    between atoms: _398  and  _399
REMARK  167  A    between atoms: _399  and  _400
REMARK  168  A    between atoms: _402  and  _404
REMARK  169  A    between atoms: _404  and  _405
REMARK  170  A    between atoms: _404  and  _407
REMARK  171  A    between atoms: _407  and  _408
REMARK  172  A    between atoms: _411  and  _413
REMARK  173  A    between atoms: _413  and  _414
REMARK  174  A    between atoms: _416  and  _418
REMARK  175  A    between atoms: _418  and  _419
REMARK  176  A    between atoms: _421  and  _423
REMARK  177  A    between atoms: _423  and  _424
REMARK  178  A    between atoms: _423  and  _426
REMARK  179  A    between atoms: _426  and  _427
REMARK  180  A    between atoms: _430  and  _432
REMARK  181  A    between atoms: _432  and  _433
REMARK  182  A    between atoms: _435  and  _437
REMARK  183  A    between atoms: _437  and  _438
REMARK  184  A    between atoms: _440  and  _442
REMARK  185  A    between atoms: _442  and  _443
REMARK  186  A    between atoms: _442  and  _445
REMARK  187  A    between atoms: _445  and  _446
REMARK  188  A    between atoms: _452  and  _454
REMARK  189  A    between atoms: _454  and  _455
REMARK  190  A    between atoms: _454  and  _457
REMARK  191  A    between atoms: _457  and  _458
REMARK  192  A    between atoms: _461  and  _463
REMARK  193  A    between atoms: _463  and  _464
REMARK  194  A    between atoms: _463  and  _466
REMARK  195  A    between atoms: _469  and  _471
REMARK  196  A    between atoms: _471  and  _472
REMARK  197  A    between atoms: _471  and  _474
REMARK  198  A    between atoms: _474  and  _475
REMARK  199  A    between atoms: _479  and  _480
REMARK  200  A    between atoms: _485  and  _487
REMARK  201  A    between atoms: _487  and  _488
REMARK  202  A    between atoms: _487  and  _490
REMARK  203  A    between atoms: _490  and  _491
REMARK  204  A    between atoms: _495  and  _496
REMARK  205  A    between atoms: _501  and  _503
REMARK  206  A    between atoms: _503  and  _504
REMARK  207  A    between atoms: _503  and  _506
REMARK  208  A    between atoms: _509  and  _511
REMARK  209  A    between atoms: _511  and  _512
REMARK  210  A    between atoms: _511  and  _514
REMARK  211  A    between atoms: _514  and  _515
REMARK  212  A    between atoms: _520  and  _522
REMARK  213  A    between atoms: _522  and  _523
REMARK  214  A    between atoms: _522  and  _525
REMARK  215  A    between atoms: _525  and  _526
REMARK  216  A    between atoms: _529  and  _531
REMARK  217  A    between atoms: _531  and  _532
REMARK  218  A    between atoms: _531  and  _534
REMARK  219  A    between atoms: _534  and  _535
REMARK  220  A    between atoms: _538  and  _540
REMARK  221  A    between atoms: _540  and  _541
REMARK  222  A    between atoms: _543  and  _545
REMARK  223  A    between atoms: _545  and  _546
REMARK  224  A    between atoms: _545  and  _548
REMARK  225  A    between atoms: _548  and  _549
REMARK  226  A    between atoms: _549  and  _550
REMARK  227  A    between atoms: _550  and  _551
REMARK  228  A    between atoms: _560  and  _562
REMARK  229  A    between atoms: _562  and  _563
REMARK  230  A    between atoms: _562  and  _565
REMARK  231  A    between atoms: _565  and  _566
REMARK                            x       y       z     vdW  Elec       q    Type
REMARK                         _______ _______ _______ _____ _____    ______ ____
ROOT
ATOM      1  CA  LEU A   1      33.948  27.445  10.077  0.00  0.00    +0.133 C 
ENDROOT
BRANCH   1   2
ATOM      2  N   LEU A   1      34.159  26.536  11.185  0.00  0.00    -0.239 NA
ATOM      3  H   LEU A   1      33.385  26.382  11.862  0.00  0.00    +0.142 HD
ENDBRANCH   1   2
BRANCH   1   4
ATOM      4  C   LEU A   1      34.238  28.866  10.561  0.00  0.00    +0.224 C 
ATOM      5  O   LEU A   1      33.886  29.229  11.684  0.00  0.00    -0.287 OA
ENDBRANCH   1   4
BRANCH   1   6
ATOM      6  CB  LEU A   1      32.515  27.327   9.550  0.00  0.00    +0.025 C 
BRANCH   6   7
ATOM      7  CG  LEU A   1      32.037  25.901   9.275  0.00  0.00    +0.002 C 
ATOM      8  CD2 LEU A   1      30.587  25.875   8.737  0.00  0.00    +0.000 C 
ATOM      9  CD1 LEU A   1      32.997  25.182   8.315  0.00  0.00    +0.000 C 
ENDBRANCH   6   7
ENDBRANCH   1   6
TORSDOF 4
REMARK  Name = ../refined-set-2016/2q5k/2q5k_pocket.pdb
REMARK  231 active torsions:
REMARK  status: ('A' for Active; 'I' for Inactive)
REMARK    1  A    between atoms: _1  and  _3
REMARK    2  A    between atoms: _3  and  _4
REMARK    3  A    between atoms: _3  and  _6
REMARK    4  A    between atoms: _6  and  _7
REMARK    5  A    between atoms: _7  and  _8
REMARK    6  A    between atoms: _8  and  _9
REMARK    7  A    between atoms: _18  and  _20
REMARK    8  A    between atoms: _20  and  _21
REMARK    9  A    between atoms: _20  and  _23
REMARK   10  A    between atoms: _23  and  _24
REMARK   11  A    between atoms: _27  and  _29
REMARK   12  A    between atoms: _29  and  _30
REMARK   13  A    between atoms: _29  and  _32
REMARK   14  A    between atoms: _32  and  _33
REMARK   15  A    between atoms: _36  and  _38
REMARK   16  A    between atoms: _38  and  _39
REMARK   17  A    between atoms: _38  and  _41
REMARK   18  A    between atoms: _41  and  _42
REMARK   19  A    between atoms: _45  and  _47
REMARK   20  A    between atoms: _47  and  _48
REMARK   21  A    between atoms: _47  and  _50
REMARK   22  A    between atoms: _50  and  _51
REMARK   23  A    between atoms: _54  and  _56
REMARK   24  A    between atoms: _56  and  _57
REMARK   25  A    between atoms: _59  and  _61
REMARK   26  A    between atoms: _61  and  _62
REMARK   27  A    between atoms: _65  and  _67
REMARK   28  A    between atoms: _67  and  _68
REMARK   29  A    between atoms: _67  and  _70
REMARK   30  A    between atoms: _70  and  _71
REMARK   31  A    between atoms: _74  and  _76
REMARK   32  A    between atoms: _76  and  _77
REMARK   33  A    between atoms: _76  and  _79
REMARK   34  A    between atoms: _79  and  _80
REMARK   35  A    between atoms: _83  and  _85
REMARK   36  A    between atoms: _85  and  _86
REMARK   37  A    between atoms: _85  and  _88
REMARK   38  A    between atoms: _88  and  _89
REMARK   39  A    between atoms: _92  and  _94
REMARK   40  A    between atoms: _94  and  _95
REMARK   41  A    between atoms: _94  and  _97
REMARK   42  A    between atoms: _100  and  _102
REMARK   43  A    between atoms: _102  and  _103
REMARK   44  A    between atoms: _102  and  _105
REMARK   45  A    between atoms: _105  and  _106
REMARK   46  A    between atoms: _106  and  _107
REMARK   47  A    between atoms: _107  and  _108
REMARK   48  A    between atoms: _108  and  _109
REMARK   49  A    between atoms: _113  and  _115
REMARK   50  A    between atoms: _115  and  _116
REMARK   51  A    between atoms: _115  and  _118
REMARK   52  A    between atoms: _118  and  _119
REMARK   53  A    between atoms: _119  and  _120
REMARK   54  A    between atoms: _122  and  _124
REMARK   55  A    between atoms: _124  and  _125
REMARK   56  A    between atoms: _124  and  _127
REMARK   57  A    between atoms: _127  and  _128
REMARK   58  A    between atoms: _131  and  _133
REMARK   59  A    between atoms: _133  and  _134
REMARK   60  A    between atoms: _136  and  _138
REMARK   61  A    between atoms: _138  and  _139
REMARK   62  A    between atoms: _141  and  _143
REMARK   63  A    between atoms: _143  and  _144
REMARK   64  A    between atoms: _143  and  _146
REMARK   65  A    between atoms: _146  and  _147
REMARK   66  A    between atoms: _150  and  _152
REMARK   67  A    between atoms: _152  and  _153
REMARK   68  A    between atoms: _155  and  _157
REMARK   69  A    between atoms: _157  and  _158
REMARK   70  A    between atoms: _160  and  _162
REMARK   71  A    between atoms: _162  and  _163
REMARK   72  A    between atoms: _162  and  _165
REMARK   73  A    between atoms: _165  and  _166
REMARK   74  A    between atoms: _172  and  _174
REMARK   75  A    between atoms: _174  and  _175
REMARK   76  A    between atoms: _174  and  _177
REMARK   77  A    between atoms: _177  and  _178
REMARK   78  A    between atoms: _181  and  _183
REMARK   79  A    between atoms: _183  and  _184
REMARK   80  A    between atoms: _183  and  _186
REMARK   81  A    between atoms: _186  and  _187
REMARK   82  A    between atoms: _191  and  _192
REMARK   83  A    between atoms: _197  and  _199
REMARK   84  A    between atoms: _199  and  _200
REMARK   85  A    between atoms: _199  and  _202
REMARK   86  A    between atoms: _202  and  _203
REMARK   87  A    between atoms: _207  and  _208
REMARK   88  A    between atoms: _213  and  _215
REMARK   89  A    between atoms: _215  and  _216
REMARK   90  A    between atoms: _215  and  _218
REMARK   91  A    between atoms: _221  and  _223
REMARK   92  A    between atoms: _223  and  _224
REMARK   93  A    between atoms: _223  and  _226
REMARK   94  A    between atoms: _226  and  _227
REMARK   95  A    between atoms: _232  and  _234
REMARK   96  A    between atoms: _234  and  _235
REMARK   97  A    between atoms: _234  and  _237
REMARK   98  A    between atoms: _237  and  _238
REMARK   99  A    between atoms: _241  and  _243
REMARK  100  A    between atoms: _243  and  _244
REMARK  101  A    between atoms: _243  and  _246
REMARK  102  A    between atoms: _246  and  _247
REMARK  103  A    between atoms: _250  and  _252
REMARK  104  A    between atoms: _252  and  _253
REMARK  105  A    between atoms: _255  and  _257
REMARK  106  A    between atoms: _257  and  _258
REMARK  107  A    between atoms: _257  and  _260
REMARK  108  A    between atoms: _260  and  _261
REMARK  109  A    between atoms: _261  and  _262
REMARK  110  A    between atoms: _262  and  _263
REMARK  111  A    between atoms: _272  and  _274
REMARK  112  A    between atoms: _274  and  _275
REMARK  113  A    between atoms: _274  and  _277
REMARK  114  A    between atoms: _277  and  _278
REMARK  115  A    between atoms: _278  and  _279
REMARK  116  A    between atoms: _279  and  _280
REMARK  117  A    between atoms: _289  and  _291
REMARK  118  A    between atoms: _291  and  _292
REMARK  119  A    between atoms: _291  and  _294
REMARK  120  A    between atoms: _294  and  _295
REMARK  121  A    between atoms: _298  and  _300
REMARK  122  A    between atoms: _300  and  _301
REMARK  123  A    between atoms: _300  and  _303
REMARK  124  A    between atoms: _303  and  _304
REMARK  125  A    between atoms: _307  and  _309
REMARK  126  A    between atoms: _309  and  _310
REMARK  127  A    between atoms: _309  and  _312
REMARK  128  A    between atoms: _312  and  _313
REMARK  129  A    between atoms: _316  and  _318
REMARK  130  A    between atoms: _318  and  _319
REMARK  131  A    between atoms: _318  and  _321
REMARK  132  A    between atoms: _321  and  _322
REMARK  133  A    between atoms: _325  and  _327
REMARK  134  A    between atoms: _327  and  _328
REMARK  135  A    between atoms: _330  and  _332
REMARK  136  A    between atoms: _332  and  _333
REMARK  137  A    between atoms: _336  and  _338
REMARK  138  A    between atoms: _338  and  _339
REMARK  139  A    between atoms: _338  and  _341
REMARK  140  A    between atoms: _341  and  _342
REMARK  141  A    between atoms: _345  and  _347
REMARK  142  A    between atoms: _347  and  _348
REMARK  143  A    between atoms: _347  and  _350
REMARK  144  A    between atoms: _350  and  _351
REMARK  145  A    between atoms: _354  and  _356
REMARK  146  A    between atoms: _356  and  _357
REMARK  147  A    between atoms: _356  and  _359
REMARK  148  A    between atoms: _359  and  _360
REMARK  149  A    between atoms: _363  and  _365
REMARK  150  A    between atoms: _365  and  _366
REMARK  151  A    between atoms: _365  and  _368
REMARK  152  A    between atoms: _371  and  _373
REMARK  153  A    between atoms: _373  and  _374
REMARK  154  A    between atoms: _373  and  _376
REMARK  155  A    between atoms: _376  and  _377
REMARK  156  A    between atoms: _380  and  _382
REMARK  157  A    between atoms: _382  and  _383
REMARK  158  A    between atoms: _382  and  _385
REMARK  159  A    between atoms: _385  and  _386
REMARK  160  A    between atoms: _386  and  _387
REMARK  161  A    between atoms: _387  and  _388
REMARK  162  A    between atoms: _388  and  _389
REMARK  163  A    between atoms: _393  and  _395
REMARK  164  A    between atoms: _395  and  _396
REMARK  165  A    between atoms: _395  and  _398
REMARK  166  A    between atoms: _398  and  _399
REMARK  167  A    between atoms: _399  and  _400
REMARK  168  A    between atoms: _402  and  _404
REMARK  169  A    between atoms: _404  and  _405
REMARK  170  A    between atoms: _404  and  _407
REMARK  171  A    between atoms: _407  and  _408
REMARK  172  A    between atoms: _411  and  _413
REMARK  173  A    between atoms: _413  and  _414
REMARK  174  A    between atoms: _416  and  _418
REMARK  175  A    between atoms: _418  and  _419
REMARK  176  A    between atoms: _421  and  _423
REMARK  177  A    between atoms: _423  and  _424
REMARK  178  A    between atoms: _423  and  _426
REMARK  179  A    between atoms: _426  and  _427
REMARK  180  A    between atoms: _430  and  _432
REMARK  181  A    between atoms: _432  and  _433
REMARK  182  A    between atoms: _435  and  _437
REMARK  183  A    between atoms: _437  and  _438
REMARK  184  A    between atoms: _440  and  _442
REMARK  185  A    between atoms: _442  and  _443
REMARK  186  A    between atoms: _442  and  _445
REMARK  187  A    between atoms: _445  and  _446
REMARK  188  A    between atoms: _452  and  _454
REMARK  189  A    between atoms: _454  and  _455
REMARK  190  A    between atoms: _454  and  _457
REMARK  191  A    between atoms: _457  and  _458
REMARK  192  A    between atoms: _461  and  _463
REMARK  193  A    between atoms: _463  and  _464
REMARK  194  A    between atoms: _463  and  _466
REMARK  195  A    between atoms: _469  and  _471
REMARK  196  A    between atoms: _471  and  _472
REMARK  197  A    between atoms: _471  and  _474
REMARK  198  A    between atoms: _474  and  _475
REMARK  199  A    between atoms: _479  and  _480
REMARK  200  A    between atoms: _485  and  _487
REMARK  201  A    between atoms: _487  and  _488
REMARK  202  A    between atoms: _487  and  _490
REMARK  203  A    between atoms: _490  and  _491
REMARK  204  A    between atoms: _495  and  _496
REMARK  205  A    between atoms: _501  and  _503
REMARK  206  A    between atoms: _503  and  _504
REMARK  207  A    between atoms: _503  and  _506
REMARK  208  A    between atoms: _509  and  _511
REMARK  209  A    between atoms: _511  and  _512
REMARK  210  A    between atoms: _511  and  _514
REMARK  211  A    between atoms: _514  and  _515
REMARK  212  A    between atoms: _520  and  _522
REMARK  213  A    between atoms: _522  and  _523
REMARK  214  A    between atoms: _522  and  _525
REMARK  215  A    between atoms: _525  and  _526
REMARK  216  A    between atoms: _529  and  _531
REMARK  217  A    between atoms: _531  and  _532
REMARK  218  A    between atoms: _531  and  _534
REMARK  219  A    between atoms: _534  and  _535
REMARK  220  A    between atoms: _538  and  _540
REMARK  221  A    between atoms: _540  and  _541
REMARK  222  A    between atoms: _543  and  _545
REMARK  223  A    between atoms: _545  and  _546
REMARK  224  A    between atoms: _545  and  _548
REMARK  225  A    between atoms: _548  and  _549
REMARK  226  A    between atoms: _549  and  _550
REMARK  227  A    between atoms: _550  and  _551
REMARK  228  A    between atoms: _560  and  _562
REMARK  229  A    between atoms: _562  and  _563
REMARK  230  A    between atoms: _562  and  _565
REMARK  231  A    between atoms: _565  and  _566
REMARK                            x       y       z     vdW  Elec       q    Type
REMARK                         _______ _______ _______ _____ _____    ______ ____
ROOT
ATOM      1  C   ASN A   5      29.461  32.020  17.967  0.00  0.00    +0.241 C 
ATOM      2  O   ASN A   5      28.737  32.202  18.958  0.00  0.00    -0.273 OA
ATOM      3  N   ILE A   6      29.439  30.905  17.230  0.00  0.00    -0.297 N 
ATOM      4  H   ILE A   6      30.156  30.785  16.486  0.00  0.00    +0.150 HD
ENDROOT
BRANCH   3   5
ATOM      5  CA  ILE A   6      28.457  29.856  17.424  0.00  0.00    +0.149 C 
BRANCH   5   6
ATOM      6  C   ILE A   6      29.156  28.515  17.613  0.00  0.00    +0.241 C 
ATOM      7  N   ILE A   7      28.880  27.857  18.743  0.00  0.00    -0.297 N 
ATOM      8  H   ILE A   7      28.345  28.342  19.491  0.00  0.00    +0.150 HD
ATOM      9  O   ILE A   6      29.948  28.110  16.764  0.00  0.00    -0.273 OA
BRANCH   7  10
ATOM     10  CA  ILE A   7      29.307  26.477  18.960  0.00  0.00    +0.149 C 
BRANCH  10  11
ATOM     11  C   ILE A   7      28.114  25.588  18.620  0.00  0.00    +0.241 C 
ATOM     12  O   ILE A   7      27.077  25.613  19.319  0.00  0.00    -0.273 OA
ATOM     13  N   GLY A   8      28.262  24.818  17.541  0.00  0.00    -0.295 N 
ATOM     14  H   GLY A   8      29.161  24.856  17.020  0.00  0.00    +0.150 HD
BRANCH  13  15
ATOM     15  CA  GLY A   8      27.222  23.932  17.066  0.00  0.00    +0.176 C 
BRANCH  15  16
ATOM     16  C   GLY A   8      27.336  22.497  17.542  0.00  0.00    +0.243 C 
ATOM     17  O   GLY A   8      28.264  22.126  18.285  0.00  0.00    -0.273 OA
ATOM     18  N   ARG A   9      26.388  21.681  17.075  0.00  0.00    -0.298 N 
ATOM     19  H   ARG A   9      25.714  22.049  16.374  0.00  0.00    +0.150 HD
BRANCH  18  20
ATOM     20  CA  ARG A   9      26.259  20.301  17.506  0.00  0.00    +0.137 C 
BRANCH  20  21
ATOM     21  C   ARG A   9      27.519  19.453  17.303  0.00  0.00    +0.227 C 
ATOM     22  O   ARG A   9      27.763  18.547  18.088  0.00  0.00    -0.286 OA
ENDBRANCH  20  21
BRANCH  20  23
ATOM     23  CB  ARG A   9      25.061  19.634  16.822  0.00  0.00    +0.031 C 
BRANCH  23  24
ATOM     24  CG  ARG A   9      23.711  20.181  17.306  0.00  0.00    +0.045 C 
BRANCH  24  25
ATOM     25  CD  ARG A   9      22.507  19.407  16.763  0.00  0.00    +0.174 C 
BRANCH  25  26
ATOM     26  NE  ARG A   9      22.438  19.422  15.302  0.00  0.00    -0.265 N 
ATOM     27  HE  ARG A   9      22.009  20.254  14.848  0.00  0.00    +0.259 HD
ATOM     28  CZ  ARG A   9      22.886  18.446  14.508  0.00  0.00    +0.342 C 
ATOM     29  NH2 ARG A   9      23.460  17.361  15.010  0.00  0.00    -0.292 N 
ATOM     30 HH21 ARG A   9      23.568  17.259  16.039  0.00  0.00    +0.255 HD
ATOM     31 HH22 ARG A   9      23.802  16.612  14.374  0.00  0.00    +0.255 HD
ATOM     32  NH1 ARG A   9      22.777  18.566  13.196  0.00  0.00    -0.292 N 
ATOM     33 HH11 ARG A   9      22.344  19.418  12.786  0.00  0.00    +0.255 HD
ATOM     34 HH12 ARG A   9      23.124  17.808  12.574  0.00  0.00    +0.255 HD
ENDBRANCH  25  26
ENDBRANCH  24  25
ENDBRANCH  23  24
ENDBRANCH  20  23
ENDBRANCH  18  20
ENDBRANCH  15  16
ENDBRANCH  13  15
ENDBRANCH  10  11
BRANCH  10  35
ATOM     35  CB  ILE A   7      29.727  26.203  20.409  0.00  0.00    +0.027 C 
ATOM     36  CG2 ILE A   7      30.232  24.748  20.561  0.00  0.00    +0.002 C 
BRANCH  35  37
ATOM     37  CG1 ILE A   7      30.789  27.206  20.886  0.00  0.00    +0.002 C 
ATOM     38  CD1 ILE A   7      32.105  27.183  20.090  0.00  0.00    +0.000 C 
ENDBRANCH  35  37
ENDBRANCH  10  35
ENDBRANCH   7  10
ENDBRANCH   5   6
BRANCH   5  39
ATOM     39  CB  ILE A   6      27.472  29.800  16.206  0.00  0.00    +0.027 C 
ATOM     40  CG2 ILE A   6      26.723  28.481  16.136  0.00  0.00    +0.002 C 
BRANCH  39  41
ATOM     41  CG1 ILE A   6      26.503  30.977  16.269  0.00  0.00    +0.002 C 
ATOM     42  CD1 ILE A   6      25.769  31.245  14.981  0.00  0.00    +0.000 C 
ENDBRANCH  39  41
ENDBRANCH   5  39
ENDBRANCH   3   5
BRANCH   1  43
ATOM     43  CA  ASN A   5      30.435  33.101  17.532  0.00  0.00    +0.158 C 
BRANCH  43  45
ATOM     44  C   VAL A   4      28.722  34.565  16.595  0.00  0.00    +0.241 C 
ATOM     45  N   ASN A   5      29.707  34.378  17.482  0.00  0.00    -0.297 N 
ATOM     46  H   ASN A   5      29.960  35.142  18.141  0.00  0.00    +0.150 HD
ATOM     47  O   VAL A   4      28.412  33.722  15.755  0.00  0.00    -0.273 OA
BRANCH  44  48
ATOM     48  CA  VAL A   4      27.955  35.879  16.646  0.00  0.00    +0.149 C 
BRANCH  48  51
ATOM     49  C   PRO A   3      27.347  37.491  14.911  0.00  0.00    +0.241 C 
ATOM     50  O   PRO A   3      27.563  38.442  15.639  0.00  0.00    -0.273 OA
ATOM     51  N   VAL A   4      27.543  36.232  15.290  0.00  0.00    -0.297 N 
ATOM     52  H   VAL A   4      27.398  35.471  14.596  0.00  0.00    +0.150 HD
BRANCH  49  56
ATOM     53  C   THR A   2      28.406  36.356  12.266  0.00  0.00    +0.246 C 
ATOM     54  O   THR A   2      29.349  37.027  12.715  0.00  0.00    -0.273 OA
ATOM     55  N   PRO A   3      27.126  36.640  12.546  0.00  0.00    -0.272 N 
ATOM     56  CA  PRO A   3      26.843  37.730  13.482  0.00  0.00    +0.152 C 
ATOM     57  CB  PRO A   3      25.315  37.832  13.449  0.00  0.00    +0.031 C 
ATOM     58  CG  PRO A   3      24.905  37.197  12.164  0.00  0.00    +0.024 C 
ATOM     59  CD  PRO A   3      25.884  36.067  11.996  0.00  0.00    +0.094 C 
BRANCH  53  60
ATOM     60  CA  THR A   2      28.663  35.181  11.313  0.00  0.00    +0.176 C 
BRANCH  60  62
ATOM     61  C   PRO A   1      29.691  36.459   9.540  0.00  0.00    +0.239 C 
ATOM     62  N   THR A   2      29.788  35.511  10.462  0.00  0.00    -0.295 N 
ATOM     63  H   THR A   2      30.685  34.997  10.576  0.00  0.00    +0.150 HD
ATOM     64  O   PRO A   1      28.616  36.975   9.213  0.00  0.00    -0.274 OA
BRANCH  61  66
ATOM     65  N   PRO A   1      31.761  35.723   8.383  0.00  0.00    -0.210 NA
ATOM     66  CA  PRO A   1      31.008  36.870   8.870  0.00  0.00    +0.149 C 
ATOM     67  CB  PRO A   1      30.772  37.680   7.596  0.00  0.00    +0.028 C 
ATOM     68  CG  PRO A   1      30.621  36.655   6.552  0.00  0.00    +0.021 C 
ATOM     69  CD  PRO A   1      31.564  35.535   6.935  0.00  0.00    +0.089 C 
ENDBRANCH  61  66
ENDBRANCH  60  62
BRANCH  60  70
ATOM     70  CB  THR A   2      28.877  33.876  12.090  0.00  0.00    +0.137 C 
ATOM     71  CG2 THR A   2      30.182  33.922  12.912  0.00  0.00    +0.034 C 
BRANCH  70  72
ATOM     72  OG1 THR A   2      27.755  33.649  12.954  0.00  0.00    -0.382 OA
ATOM     73  HG1 THR A   2      27.671  34.404  13.589  0.00  0.00    +0.210 HD
ENDBRANCH  70  72
ENDBRANCH  60  70
ENDBRANCH  53  60
ENDBRANCH  49  56
ENDBRANCH  48  51
BRANCH  48  74
ATOM     74  CB  VAL A   4      26.719  35.713  17.571  0.00  0.00    +0.027 C 
ATOM     75  CG2 VAL A   4      27.146  35.453  19.012  0.00  0.00    +0.002 C 
ATOM     76  CG1 VAL A   4      25.797  34.583  17.076  0.00  0.00    +0.002 C 
ENDBRANCH  48  74
ENDBRANCH  44  48
ENDBRANCH  43  45
BRANCH  43  77
ATOM     77  CB  ASN A   5      31.617  33.150  18.514  0.00  0.00    +0.114 C 
BRANCH  77  78
ATOM     78  CG  ASN A   5      32.721  34.086  18.072  0.00  0.00    +0.222 C 
ATOM     79  ND2 ASN A   5      33.213  34.910  19.003  0.00  0.00    -0.329 N 
ATOM     80 HD21 ASN A   5      32.820  34.900  19.966  0.00  0.00    +0.145 HD
ATOM     81 HD22 ASN A   5      33.989  35.560  18.764  0.00  0.00    +0.145 HD
ATOM     82  OD1 ASN A   5      33.149  34.056  16.917  0.00  0.00    -0.275 OA
ENDBRANCH  77  78
ENDBRANCH  43  77
ENDBRANCH   1  43
TORSDOF 29
REMARK  Name = ../refined-set-2016/2q5k/2q5k_pocket.pdb
REMARK  231 active torsions:
REMARK  status: ('A' for Active; 'I' for Inactive)
REMARK    1  A    between atoms: _1  and  _3
REMARK    2  A    between atoms: _3  and  _4
REMARK    3  A    between atoms: _3  and  _6
REMARK    4  A    between atoms: _6  and  _7
REMARK    5  A    between atoms: _7  and  _8
REMARK    6  A    between atoms: _8  and  _9
REMARK    7  A    between atoms: _18  and  _20
REMARK    8  A    between atoms: _20  and  _21
REMARK    9  A    between atoms: _20  and  _23
REMARK   10  A    between atoms: _23  and  _24
REMARK   11  A    between atoms: _27  and  _29
REMARK   12  A    between atoms: _29  and  _30
REMARK   13  A    between atoms: _29  and  _32
REMARK   14  A    between atoms: _32  and  _33
REMARK   15  A    between atoms: _36  and  _38
REMARK   16  A    between atoms: _38  and  _39
REMARK   17  A    between atoms: _38  and  _41
REMARK   18  A    between atoms: _41  and  _42
REMARK   19  A    between atoms: _45  and  _47
REMARK   20  A    between atoms: _47  and  _48
REMARK   21  A    between atoms: _47  and  _50
REMARK   22  A    between atoms: _50  and  _51
REMARK   23  A    between atoms: _54  and  _56
REMARK   24  A    between atoms: _56  and  _57
REMARK   25  A    between atoms: _59  and  _61
REMARK   26  A    between atoms: _61  and  _62
REMARK   27  A    between atoms: _65  and  _67
REMARK   28  A    between atoms: _67  and  _68
REMARK   29  A    between atoms: _67  and  _70
REMARK   30  A    between atoms: _70  and  _71
REMARK   31  A    between atoms: _74  and  _76
REMARK   32  A    between atoms: _76  and  _77
REMARK   33  A    between atoms: _76  and  _79
REMARK   34  A    between atoms: _79  and  _80
REMARK   35  A    between atoms: _83  and  _85
REMARK   36  A    between atoms: _85  and  _86
REMARK   37  A    between atoms: _85  and  _88
REMARK   38  A    between atoms: _88  and  _89
REMARK   39  A    between atoms: _92  and  _94
REMARK   40  A    between atoms: _94  and  _95
REMARK   41  A    between atoms: _94  and  _97
REMARK   42  A    between atoms: _100  and  _102
REMARK   43  A    between atoms: _102  and  _103
REMARK   44  A    between atoms: _102  and  _105
REMARK   45  A    between atoms: _105  and  _106
REMARK   46  A    between atoms: _106  and  _107
REMARK   47  A    between atoms: _107  and  _108
REMARK   48  A    between atoms: _108  and  _109
REMARK   49  A    between atoms: _113  and  _115
REMARK   50  A    between atoms: _115  and  _116
REMARK   51  A    between atoms: _115  and  _118
REMARK   52  A    between atoms: _118  and  _119
REMARK   53  A    between atoms: _119  and  _120
REMARK   54  A    between atoms: _122  and  _124
REMARK   55  A    between atoms: _124  and  _125
REMARK   56  A    between atoms: _124  and  _127
REMARK   57  A    between atoms: _127  and  _128
REMARK   58  A    between atoms: _131  and  _133
REMARK   59  A    between atoms: _133  and  _134
REMARK   60  A    between atoms: _136  and  _138
REMARK   61  A    between atoms: _138  and  _139
REMARK   62  A    between atoms: _141  and  _143
REMARK   63  A    between atoms: _143  and  _144
REMARK   64  A    between atoms: _143  and  _146
REMARK   65  A    between atoms: _146  and  _147
REMARK   66  A    between atoms: _150  and  _152
REMARK   67  A    between atoms: _152  and  _153
REMARK   68  A    between atoms: _155  and  _157
REMARK   69  A    between atoms: _157  and  _158
REMARK   70  A    between atoms: _160  and  _162
REMARK   71  A    between atoms: _162  and  _163
REMARK   72  A    between atoms: _162  and  _165
REMARK   73  A    between atoms: _165  and  _166
REMARK   74  A    between atoms: _172  and  _174
REMARK   75  A    between atoms: _174  and  _175
REMARK   76  A    between atoms: _174  and  _177
REMARK   77  A    between atoms: _177  and  _178
REMARK   78  A    between atoms: _181  and  _183
REMARK   79  A    between atoms: _183  and  _184
REMARK   80  A    between atoms: _183  and  _186
REMARK   81  A    between atoms: _186  and  _187
REMARK   82  A    between atoms: _191  and  _192
REMARK   83  A    between atoms: _197  and  _199
REMARK   84  A    between atoms: _199  and  _200
REMARK   85  A    between atoms: _199  and  _202
REMARK   86  A    between atoms: _202  and  _203
REMARK   87  A    between atoms: _207  and  _208
REMARK   88  A    between atoms: _213  and  _215
REMARK   89  A    between atoms: _215  and  _216
REMARK   90  A    between atoms: _215  and  _218
REMARK   91  A    between atoms: _221  and  _223
REMARK   92  A    between atoms: _223  and  _224
REMARK   93  A    between atoms: _223  and  _226
REMARK   94  A    between atoms: _226  and  _227
REMARK   95  A    between atoms: _232  and  _234
REMARK   96  A    between atoms: _234  and  _235
REMARK   97  A    between atoms: _234  and  _237
REMARK   98  A    between atoms: _237  and  _238
REMARK   99  A    between atoms: _241  and  _243
REMARK  100  A    between atoms: _243  and  _244
REMARK  101  A    between atoms: _243  and  _246
REMARK  102  A    between atoms: _246  and  _247
REMARK  103  A    between atoms: _250  and  _252
REMARK  104  A    between atoms: _252  and  _253
REMARK  105  A    between atoms: _255  and  _257
REMARK  106  A    between atoms: _257  and  _258
REMARK  107  A    between atoms: _257  and  _260
REMARK  108  A    between atoms: _260  and  _261
REMARK  109  A    between atoms: _261  and  _262
REMARK  110  A    between atoms: _262  and  _263
REMARK  111  A    between atoms: _272  and  _274
REMARK  112  A    between atoms: _274  and  _275
REMARK  113  A    between atoms: _274  and  _277
REMARK  114  A    between atoms: _277  and  _278
REMARK  115  A    between atoms: _278  and  _279
REMARK  116  A    between atoms: _279  and  _280
REMARK  117  A    between atoms: _289  and  _291
REMARK  118  A    between atoms: _291  and  _292
REMARK  119  A    between atoms: _291  and  _294
REMARK  120  A    between atoms: _294  and  _295
REMARK  121  A    between atoms: _298  and  _300
REMARK  122  A    between atoms: _300  and  _301
REMARK  123  A    between atoms: _300  and  _303
REMARK  124  A    between atoms: _303  and  _304
REMARK  125  A    between atoms: _307  and  _309
REMARK  126  A    between atoms: _309  and  _310
REMARK  127  A    between atoms: _309  and  _312
REMARK  128  A    between atoms: _312  and  _313
REMARK  129  A    between atoms: _316  and  _318
REMARK  130  A    between atoms: _318  and  _319
REMARK  131  A    between atoms: _318  and  _321
REMARK  132  A    between atoms: _321  and  _322
REMARK  133  A    between atoms: _325  and  _327
REMARK  134  A    between atoms: _327  and  _328
REMARK  135  A    between atoms: _330  and  _332
REMARK  136  A    between atoms: _332  and  _333
REMARK  137  A    between atoms: _336  and  _338
REMARK  138  A    between atoms: _338  and  _339
REMARK  139  A    between atoms: _338  and  _341
REMARK  140  A    between atoms: _341  and  _342
REMARK  141  A    between atoms: _345  and  _347
REMARK  142  A    between atoms: _347  and  _348
REMARK  143  A    between atoms: _347  and  _350
REMARK  144  A    between atoms: _350  and  _351
REMARK  145  A    between atoms: _354  and  _356
REMARK  146  A    between atoms: _356  and  _357
REMARK  147  A    between atoms: _356  and  _359
REMARK  148  A    between atoms: _359  and  _360
REMARK  149  A    between atoms: _363  and  _365
REMARK  150  A    between atoms: _365  and  _366
REMARK  151  A    between atoms: _365  and  _368
REMARK  152  A    between atoms: _371  and  _373
REMARK  153  A    between atoms: _373  and  _374
REMARK  154  A    between atoms: _373  and  _376
REMARK  155  A    between atoms: _376  and  _377
REMARK  156  A    between atoms: _380  and  _382
REMARK  157  A    between atoms: _382  and  _383
REMARK  158  A    between atoms: _382  and  _385
REMARK  159  A    between atoms: _385  and  _386
REMARK  160  A    between atoms: _386  and  _387
REMARK  161  A    between atoms: _387  and  _388
REMARK  162  A    between atoms: _388  and  _389
REMARK  163  A    between atoms: _393  and  _395
REMARK  164  A    between atoms: _395  and  _396
REMARK  165  A    between atoms: _395  and  _398
REMARK  166  A    between atoms: _398  and  _399
REMARK  167  A    between atoms: _399  and  _400
REMARK  168  A    between atoms: _402  and  _404
REMARK  169  A    between atoms: _404  and  _405
REMARK  170  A    between atoms: _404  and  _407
REMARK  171  A    between atoms: _407  and  _408
REMARK  172  A    between atoms: _411  and  _413
REMARK  173  A    between atoms: _413  and  _414
REMARK  174  A    between atoms: _416  and  _418
REMARK  175  A    between atoms: _418  and  _419
REMARK  176  A    between atoms: _421  and  _423
REMARK  177  A    between atoms: _423  and  _424
REMARK  178  A    between atoms: _423  and  _426
REMARK  179  A    between atoms: _426  and  _427
REMARK  180  A    between atoms: _430  and  _432
REMARK  181  A    between atoms: _432  and  _433
REMARK  182  A    between atoms: _435  and  _437
REMARK  183  A    between atoms: _437  and  _438
REMARK  184  A    between atoms: _440  and  _442
REMARK  185  A    between atoms: _442  and  _443
REMARK  186  A    between atoms: _442  and  _445
REMARK  187  A    between atoms: _445  and  _446
REMARK  188  A    between atoms: _452  and  _454
REMARK  189  A    between atoms: _454  and  _455
REMARK  190  A    between atoms: _454  and  _457
REMARK  191  A    between atoms: _457  and  _458
REMARK  192  A    between atoms: _461  and  _463
REMARK  193  A    between atoms: _463  and  _464
REMARK  194  A    between atoms: _463  and  _466
REMARK  195  A    between atoms: _469  and  _471
REMARK  196  A    between atoms: _471  and  _472
REMARK  197  A    between atoms: _471  and  _474
REMARK  198  A    between atoms: _474  and  _475
REMARK  199  A    between atoms: _479  and  _480
REMARK  200  A    between atoms: _485  and  _487
REMARK  201  A    between atoms: _487  and  _488
REMARK  202  A    between atoms: _487  and  _490
REMARK  203  A    between atoms: _490  and  _491
REMARK  204  A    between atoms: _495  and  _496
REMARK  205  A    between atoms: _501  and  _503
REMARK  206  A    between atoms: _503  and  _504
REMARK  207  A    between atoms: _503  and  _506
REMARK  208  A    between atoms: _509  and  _511
REMARK  209  A    between atoms: _511  and  _512
REMARK  210  A    between atoms: _511  and  _514
REMARK  211  A    between atoms: _514  and  _515
REMARK  212  A    between atoms: _520  and  _522
REMARK  213  A    between atoms: _522  and  _523
REMARK  214  A    between atoms: _522  and  _525
REMARK  215  A    between atoms: _525  and  _526
REMARK  216  A    between atoms: _529  and  _531
REMARK  217  A    between atoms: _531  and  _532
REMARK  218  A    between atoms: _531  and  _534
REMARK  219  A    between atoms: _534  and  _535
REMARK  220  A    between atoms: _538  and  _540
REMARK  221  A    between atoms: _540  and  _541
REMARK  222  A    between atoms: _543  and  _545
REMARK  223  A    between atoms: _545  and  _546
REMARK  224  A    between atoms: _545  and  _548
REMARK  225  A    between atoms: _548  and  _549
REMARK  226  A    between atoms: _549  and  _550
REMARK  227  A    between atoms: _550  and  _551
REMARK  228  A    between atoms: _560  and  _562
REMARK  229  A    between atoms: _562  and  _563
REMARK  230  A    between atoms: _562  and  _565
REMARK  231  A    between atoms: _565  and  _566
REMARK                            x       y       z     vdW  Elec       q    Type
REMARK                         _______ _______ _______ _____ _____    ______ ____
ROOT
ATOM      1  NE  ARG A   1      19.549  20.502  10.555  0.00  0.00    -0.265 N 
ATOM      2  HE  ARG A   1      20.558  20.318  10.729  0.00  0.00    +0.259 HD
ATOM      3  CZ  ARG A   1      19.227  21.180   9.456  0.00  0.00    +0.342 C 
ATOM      4  NH2 ARG A   1      17.960  21.443   9.153  0.00  0.00    -0.292 N 
ATOM      5 HH21 ARG A   1      17.197  21.117   9.780  0.00  0.00    +0.255 HD
ATOM      6 HH22 ARG A   1      17.732  21.975   8.289  0.00  0.00    +0.255 HD
ATOM      7  NH1 ARG A   1      20.188  21.591   8.640  0.00  0.00    -0.292 N 
ATOM      8 HH11 ARG A   1      21.183  21.383   8.861  0.00  0.00    +0.255 HD
ATOM      9 HH12 ARG A   1      19.947  22.122   7.779  0.00  0.00    +0.255 HD
ENDROOT
BRANCH   1  10
ATOM     10  CD  ARG A   1      18.587  19.995  11.540  0.00  0.00    +0.174 C 
BRANCH  10  11
ATOM     11  CG  ARG A   1      19.294  19.234  12.667  0.00  0.00    +0.045 C 
BRANCH  11  12
ATOM     12  CB  ARG A   1      18.319  18.717  13.721  0.00  0.00    +0.029 C 
BRANCH  12  13
ATOM     13  CA  ARG A   1      18.971  18.076  14.949  0.00  0.00    +0.133 C 
BRANCH  13  14
ATOM     14  N   ARG A   1      19.711  16.869  14.592  0.00  0.00    -0.239 NA
ATOM     15  H   ARG A   1      19.732  16.561  13.599  0.00  0.00    +0.142 HD
ENDBRANCH  13  14
BRANCH  13  16
ATOM     16  C   ARG A   1      17.885  17.691  15.964  0.00  0.00    +0.224 C 
ATOM     17  O   ARG A   1      17.196  16.692  15.770  0.00  0.00    -0.287 OA
ENDBRANCH  13  16
ENDBRANCH  12  13
ENDBRANCH  11  12
ENDBRANCH  10  11
ENDBRANCH   1  10
TORSDOF 6
REMARK  Name = ../refined-set-2016/2q5k/2q5k_pocket.pdb
REMARK  231 active torsions:
REMARK  status: ('A' for Active; 'I' for Inactive)
REMARK    1  A    between atoms: _1  and  _3
REMARK    2  A    between atoms: _3  and  _4
REMARK    3  A    between atoms: _3  and  _6
REMARK    4  A    between atoms: _6  and  _7
REMARK    5  A    between atoms: _7  and  _8
REMARK    6  A    between atoms: _8  and  _9
REMARK    7  A    between atoms: _18  and  _20
REMARK    8  A    between atoms: _20  and  _21
REMARK    9  A    between atoms: _20  and  _23
REMARK   10  A    between atoms: _23  and  _24
REMARK   11  A    between atoms: _27  and  _29
REMARK   12  A    between atoms: _29  and  _30
REMARK   13  A    between atoms: _29  and  _32
REMARK   14  A    between atoms: _32  and  _33
REMARK   15  A    between atoms: _36  and  _38
REMARK   16  A    between atoms: _38  and  _39
REMARK   17  A    between atoms: _38  and  _41
REMARK   18  A    between atoms: _41  and  _42
REMARK   19  A    between atoms: _45  and  _47
REMARK   20  A    between atoms: _47  and  _48
REMARK   21  A    between atoms: _47  and  _50
REMARK   22  A    between atoms: _50  and  _51
REMARK   23  A    between atoms: _54  and  _56
REMARK   24  A    between atoms: _56  and  _57
REMARK   25  A    between atoms: _59  and  _61
REMARK   26  A    between atoms: _61  and  _62
REMARK   27  A    between atoms: _65  and  _67
REMARK   28  A    between atoms: _67  and  _68
REMARK   29  A    between atoms: _67  and  _70
REMARK   30  A    between atoms: _70  and  _71
REMARK   31  A    between atoms: _74  and  _76
REMARK   32  A    between atoms: _76  and  _77
REMARK   33  A    between atoms: _76  and  _79
REMARK   34  A    between atoms: _79  and  _80
REMARK   35  A    between atoms: _83  and  _85
REMARK   36  A    between atoms: _85  and  _86
REMARK   37  A    between atoms: _85  and  _88
REMARK   38  A    between atoms: _88  and  _89
REMARK   39  A    between atoms: _92  and  _94
REMARK   40  A    between atoms: _94  and  _95
REMARK   41  A    between atoms: _94  and  _97
REMARK   42  A    between atoms: _100  and  _102
REMARK   43  A    between atoms: _102  and  _103
REMARK   44  A    between atoms: _102  and  _105
REMARK   45  A    between atoms: _105  and  _106
REMARK   46  A    between atoms: _106  and  _107
REMARK   47  A    between atoms: _107  and  _108
REMARK   48  A    between atoms: _108  and  _109
REMARK   49  A    between atoms: _113  and  _115
REMARK   50  A    between atoms: _115  and  _116
REMARK   51  A    between atoms: _115  and  _118
REMARK   52  A    between atoms: _118  and  _119
REMARK   53  A    between atoms: _119  and  _120
REMARK   54  A    between atoms: _122  and  _124
REMARK   55  A    between atoms: _124  and  _125
REMARK   56  A    between atoms: _124  and  _127
REMARK   57  A    between atoms: _127  and  _128
REMARK   58  A    between atoms: _131  and  _133
REMARK   59  A    between atoms: _133  and  _134
REMARK   60  A    between atoms: _136  and  _138
REMARK   61  A    between atoms: _138  and  _139
REMARK   62  A    between atoms: _141  and  _143
REMARK   63  A    between atoms: _143  and  _144
REMARK   64  A    between atoms: _143  and  _146
REMARK   65  A    between atoms: _146  and  _147
REMARK   66  A    between atoms: _150  and  _152
REMARK   67  A    between atoms: _152  and  _153
REMARK   68  A    between atoms: _155  and  _157
REMARK   69  A    between atoms: _157  and  _158
REMARK   70  A    between atoms: _160  and  _162
REMARK   71  A    between atoms: _162  and  _163
REMARK   72  A    between atoms: _162  and  _165
REMARK   73  A    between atoms: _165  and  _166
REMARK   74  A    between atoms: _172  and  _174
REMARK   75  A    between atoms: _174  and  _175
REMARK   76  A    between atoms: _174  and  _177
REMARK   77  A    between atoms: _177  and  _178
REMARK   78  A    between atoms: _181  and  _183
REMARK   79  A    between atoms: _183  and  _184
REMARK   80  A    between atoms: _183  and  _186
REMARK   81  A    between atoms: _186  and  _187
REMARK   82  A    between atoms: _191  and  _192
REMARK   83  A    between atoms: _197  and  _199
REMARK   84  A    between atoms: _199  and  _200
REMARK   85  A    between atoms: _199  and  _202
REMARK   86  A    between atoms: _202  and  _203
REMARK   87  A    between atoms: _207  and  _208
REMARK   88  A    between atoms: _213  and  _215
REMARK   89  A    between atoms: _215  and  _216
REMARK   90  A    between atoms: _215  and  _218
REMARK   91  A    between atoms: _221  and  _223
REMARK   92  A    between atoms: _223  and  _224
REMARK   93  A    between atoms: _223  and  _226
REMARK   94  A    between atoms: _226  and  _227
REMARK   95  A    between atoms: _232  and  _234
REMARK   96  A    between atoms: _234  and  _235
REMARK   97  A    between atoms: _234  and  _237
REMARK   98  A    between atoms: _237  and  _238
REMARK   99  A    between atoms: _241  and  _243
REMARK  100  A    between atoms: _243  and  _244
REMARK  101  A    between atoms: _243  and  _246
REMARK  102  A    between atoms: _246  and  _247
REMARK  103  A    between atoms: _250  and  _252
REMARK  104  A    between atoms: _252  and  _253
REMARK  105  A    between atoms: _255  and  _257
REMARK  106  A    between atoms: _257  and  _258
REMARK  107  A    between atoms: _257  and  _260
REMARK  108  A    between atoms: _260  and  _261
REMARK  109  A    between atoms: _261  and  _262
REMARK  110  A    between atoms: _262  and  _263
REMARK  111  A    between atoms: _272  and  _274
REMARK  112  A    between atoms: _274  and  _275
REMARK  113  A    between atoms: _274  and  _277
REMARK  114  A    between atoms: _277  and  _278
REMARK  115  A    between atoms: _278  and  _279
REMARK  116  A    between atoms: _279  and  _280
REMARK  117  A    between atoms: _289  and  _291
REMARK  118  A    between atoms: _291  and  _292
REMARK  119  A    between atoms: _291  and  _294
REMARK  120  A    between atoms: _294  and  _295
REMARK  121  A    between atoms: _298  and  _300
REMARK  122  A    between atoms: _300  and  _301
REMARK  123  A    between atoms: _300  and  _303
REMARK  124  A    between atoms: _303  and  _304
REMARK  125  A    between atoms: _307  and  _309
REMARK  126  A    between atoms: _309  and  _310
REMARK  127  A    between atoms: _309  and  _312
REMARK  128  A    between atoms: _312  and  _313
REMARK  129  A    between atoms: _316  and  _318
REMARK  130  A    between atoms: _318  and  _319
REMARK  131  A    between atoms: _318  and  _321
REMARK  132  A    between atoms: _321  and  _322
REMARK  133  A    between atoms: _325  and  _327
REMARK  134  A    between atoms: _327  and  _328
REMARK  135  A    between atoms: _330  and  _332
REMARK  136  A    between atoms: _332  and  _333
REMARK  137  A    between atoms: _336  and  _338
REMARK  138  A    between atoms: _338  and  _339
REMARK  139  A    between atoms: _338  and  _341
REMARK  140  A    between atoms: _341  and  _342
REMARK  141  A    between atoms: _345  and  _347
REMARK  142  A    between atoms: _347  and  _348
REMARK  143  A    between atoms: _347  and  _350
REMARK  144  A    between atoms: _350  and  _351
REMARK  145  A    between atoms: _354  and  _356
REMARK  146  A    between atoms: _356  and  _357
REMARK  147  A    between atoms: _356  and  _359
REMARK  148  A    between atoms: _359  and  _360
REMARK  149  A    between atoms: _363  and  _365
REMARK  150  A    between atoms: _365  and  _366
REMARK  151  A    between atoms: _365  and  _368
REMARK  152  A    between atoms: _371  and  _373
REMARK  153  A    between atoms: _373  and  _374
REMARK  154  A    between atoms: _373  and  _376
REMARK  155  A    between atoms: _376  and  _377
REMARK  156  A    between atoms: _380  and  _382
REMARK  157  A    between atoms: _382  and  _383
REMARK  158  A    between atoms: _382  and  _385
REMARK  159  A    between atoms: _385  and  _386
REMARK  160  A    between atoms: _386  and  _387
REMARK  161  A    between atoms: _387  and  _388
REMARK  162  A    between atoms: _388  and  _389
REMARK  163  A    between atoms: _393  and  _395
REMARK  164  A    between atoms: _395  and  _396
REMARK  165  A    between atoms: _395  and  _398
REMARK  166  A    between atoms: _398  and  _399
REMARK  167  A    between atoms: _399  and  _400
REMARK  168  A    between atoms: _402  and  _404
REMARK  169  A    between atoms: _404  and  _405
REMARK  170  A    between atoms: _404  and  _407
REMARK  171  A    between atoms: _407  and  _408
REMARK  172  A    between atoms: _411  and  _413
REMARK  173  A    between atoms: _413  and  _414
REMARK  174  A    between atoms: _416  and  _418
REMARK  175  A    between atoms: _418  and  _419
REMARK  176  A    between atoms: _421  and  _423
REMARK  177  A    between atoms: _423  and  _424
REMARK  178  A    between atoms: _423  and  _426
REMARK  179  A    between atoms: _426  and  _427
REMARK  180  A    between atoms: _430  and  _432
REMARK  181  A    between atoms: _432  and  _433
REMARK  182  A    between atoms: _435  and  _437
REMARK  183  A    between atoms: _437  and  _438
REMARK  184  A    between atoms: _440  and  _442
REMARK  185  A    between atoms: _442  and  _443
REMARK  186  A    between atoms: _442  and  _445
REMARK  187  A    between atoms: _445  and  _446
REMARK  188  A    between atoms: _452  and  _454
REMARK  189  A    between atoms: _454  and  _455
REMARK  190  A    between atoms: _454  and  _457
REMARK  191  A    between atoms: _457  and  _458
REMARK  192  A    between atoms: _461  and  _463
REMARK  193  A    between atoms: _463  and  _464
REMARK  194  A    between atoms: _463  and  _466
REMARK  195  A    between atoms: _469  and  _471
REMARK  196  A    between atoms: _471  and  _472
REMARK  197  A    between atoms: _471  and  _474
REMARK  198  A    between atoms: _474  and  _475
REMARK  199  A    between atoms: _479  and  _480
REMARK  200  A    between atoms: _485  and  _487
REMARK  201  A    between atoms: _487  and  _488
REMARK  202  A    between atoms: _487  and  _490
REMARK  203  A    between atoms: _490  and  _491
REMARK  204  A    between atoms: _495  and  _496
REMARK  205  A    between atoms: _501  and  _503
REMARK  206  A    between atoms: _503  and  _504
REMARK  207  A    between atoms: _503  and  _506
REMARK  208  A    between atoms: _509  and  _511
REMARK  209  A    between atoms: _511  and  _512
REMARK  210  A    between atoms: _511  and  _514
REMARK  211  A    between atoms: _514  and  _515
REMARK  212  A    between atoms: _520  and  _522
REMARK  213  A    between atoms: _522  and  _523
REMARK  214  A    between atoms: _522  and  _525
REMARK  215  A    between atoms: _525  and  _526
REMARK  216  A    between atoms: _529  and  _531
REMARK  217  A    between atoms: _531  and  _532
REMARK  218  A    between atoms: _531  and  _534
REMARK  219  A    between atoms: _534  and  _535
REMARK  220  A    between atoms: _538  and  _540
REMARK  221  A    between atoms: _540  and  _541
REMARK  222  A    between atoms: _543  and  _545
REMARK  223  A    between atoms: _545  and  _546
REMARK  224  A    between atoms: _545  and  _548
REMARK  225  A    between atoms: _548  and  _549
REMARK  226  A    between atoms: _549  and  _550
REMARK  227  A    between atoms: _550  and  _551
REMARK  228  A    between atoms: _560  and  _562
REMARK  229  A    between atoms: _562  and  _563
REMARK  230  A    between atoms: _562  and  _565
REMARK  231  A    between atoms: _565  and  _566
REMARK                            x       y       z     vdW  Elec       q    Type
REMARK                         _______ _______ _______ _____ _____    ______ ____
ROOT
ATOM      1  C   ALA A   6      16.629  32.138  20.282  0.00  0.00    +0.241 C 
ATOM      2  O   ALA A   6      16.175  31.458  21.199  0.00  0.00    -0.273 OA
ATOM      3  N   ASP A   7      16.570  33.470  20.256  0.00  0.00    -0.297 N 
ATOM      4  H   ASP A   7      16.981  33.974  19.444  0.00  0.00    +0.150 HD
ENDROOT
BRANCH   1   5
ATOM      5  CA  ALA A   6      17.285  31.471  19.081  0.00  0.00    +0.149 C 
ATOM      6  CB  ALA A   6      16.247  30.746  18.275  0.00  0.00    +0.031 C 
BRANCH   5   8
ATOM      7  C   GLY A   5      19.641  30.903  19.351  0.00  0.00    +0.243 C 
ATOM      8  N   ALA A   6      18.360  30.565  19.487  0.00  0.00    -0.297 N 
ATOM      9  H   ALA A   6      18.119  29.637  19.890  0.00  0.00    +0.150 HD
ATOM     10  O   GLY A   5      19.993  31.973  18.838  0.00  0.00    -0.273 OA
BRANCH   7  11
ATOM     11  CA  GLY A   5      20.692  29.916  19.846  0.00  0.00    +0.176 C 
BRANCH  11  14
ATOM     12  C   THR A   4      19.777  28.734  21.787  0.00  0.00    +0.243 C 
ATOM     13  O   THR A   4      19.964  29.703  22.532  0.00  0.00    -0.273 OA
ATOM     14  N   GLY A   5      20.131  28.734  20.502  0.00  0.00    -0.295 N 
ATOM     15  H   GLY A   5      20.004  27.864  19.946  0.00  0.00    +0.150 HD
BRANCH  12  16
ATOM     16  CA  THR A   4      19.121  27.462  22.326  0.00  0.00    +0.176 C 
BRANCH  16  18
ATOM     17  C   ASP A   3      17.514  26.977  20.539  0.00  0.00    +0.241 C 
ATOM     18  N   THR A   4      18.559  26.607  21.280  0.00  0.00    -0.295 N 
ATOM     19  H   THR A   4      18.990  25.676  21.108  0.00  0.00    +0.150 HD
ATOM     20  O   ASP A   3      16.985  28.092  20.625  0.00  0.00    -0.273 OA
BRANCH  17  21
ATOM     21  CA  ASP A   3      17.046  25.958  19.486  0.00  0.00    +0.160 C 
BRANCH  21  23
ATOM     22  C   LEU A   2      16.007  23.764  19.859  0.00  0.00    +0.241 C 
ATOM     23  N   ASP A   3      15.937  25.101  19.919  0.00  0.00    -0.297 N 
ATOM     24  H   ASP A   3      15.070  25.545  20.284  0.00  0.00    +0.150 HD
ATOM     25  O   LEU A   2      17.060  23.152  19.743  0.00  0.00    -0.273 OA
BRANCH  22  26
ATOM     26  CA  LEU A   2      14.699  22.999  19.947  0.00  0.00    +0.149 C 
BRANCH  26  28
ATOM     27  C   LEU A   1      13.960  23.233  17.625  0.00  0.00    +0.238 C 
ATOM     28  N   LEU A   2      14.376  22.452  18.621  0.00  0.00    -0.297 N 
ATOM     29  H   LEU A   2      14.475  21.430  18.456  0.00  0.00    +0.150 HD
ATOM     30  O   LEU A   1      13.638  24.402  17.799  0.00  0.00    -0.274 OA
BRANCH  27  31
ATOM     31  CA  LEU A   1      13.893  22.621  16.223  0.00  0.00    +0.145 C 
BRANCH  31  32
ATOM     32  N   LEU A   1      12.561  22.733  15.639  0.00  0.00    -0.238 NA
ATOM     33  H   LEU A   1      12.386  23.524  14.987  0.00  0.00    +0.142 HD
ENDBRANCH  31  32
BRANCH  31  34
ATOM     34  CB  LEU A   1      14.860  23.368  15.295  0.00  0.00    +0.026 C 
BRANCH  34  35
ATOM     35  CG  LEU A   1      16.365  23.198  15.386  0.00  0.00    +0.002 C 
ATOM     36  CD2 LEU A   1      16.774  21.774  15.090  0.00  0.00    +0.000 C 
ATOM     37  CD1 LEU A   1      17.042  24.168  14.401  0.00  0.00    +0.000 C 
ENDBRANCH  34  35
ENDBRANCH  31  34
ENDBRANCH  27  31
ENDBRANCH  26  28
BRANCH  26  38
ATOM     38  CB  LEU A   2      14.817  21.885  20.993  0.00  0.00    +0.029 C 
BRANCH  38  39
ATOM     39  CG  LEU A   2      13.541  21.075  21.234  0.00  0.00    +0.002 C 
ATOM     40  CD2 LEU A   2      13.823  19.971  22.231  0.00  0.00    +0.000 C 
ATOM     41  CD1 LEU A   2      12.390  21.984  21.706  0.00  0.00    +0.000 C 
ENDBRANCH  38  39
ENDBRANCH  26  38
ENDBRANCH  22  26
ENDBRANCH  21  23
BRANCH  21  42
ATOM     42  CB  ASP A   3      16.643  26.695  18.204  0.00  0.00    +0.143 C 
BRANCH  42  43
ATOM     43  CG  ASP A   3      17.801  27.474  17.570  0.00  0.00    +0.367 C 
ATOM     44  OD2 ASP A   3      18.905  27.508  18.143  0.00  0.00    -0.246 OA
ATOM     45  OD1 ASP A   3      17.598  28.045  16.489  0.00  0.00    -0.246 OA
ENDBRANCH  42  43
ENDBRANCH  21  42
ENDBRANCH  17  21
ENDBRANCH  16  18
BRANCH  16  46
ATOM     46  CB  THR A   4      20.147  26.694  23.195  0.00  0.00    +0.137 C 
ATOM     47  CG2 THR A   4      19.472  25.588  23.971  0.00  0.00    +0.034 C 
BRANCH  46  48
ATOM     48  OG1 THR A   4      21.173  26.128  22.370  0.00  0.00    -0.382 OA
ATOM     49  HG1 THR A   4      21.640  26.852  21.882  0.00  0.00    +0.210 HD
ENDBRANCH  46  48
ENDBRANCH  16  46
ENDBRANCH  12  16
ENDBRANCH  11  14
ENDBRANCH   7  11
ENDBRANCH   5   8
ENDBRANCH   1   5
BRANCH   3  50
ATOM     50  CA  ASP A   7      15.948  34.249  21.329  0.00  0.00    +0.160 C 
BRANCH  50  51
ATOM     51  C   ASP A   7      14.442  33.979  21.364  0.00  0.00    +0.241 C 
ATOM     52  O   ASP A   7      13.830  33.888  22.430  0.00  0.00    -0.273 OA
ATOM     53  N   ASP A   8      13.850  33.851  20.181  0.00  0.00    -0.297 N 
ATOM     54  H   ASP A   8      14.439  33.833  19.324  0.00  0.00    +0.150 HD
BRANCH  53  55
ATOM     55  CA  ASP A   8      12.400  33.735  20.044  0.00  0.00    +0.160 C 
BRANCH  55  56
ATOM     56  C   ASP A   8      12.012  32.582  19.138  0.00  0.00    +0.241 C 
ATOM     57  N   THR A   9      10.711  32.360  19.047  0.00  0.00    -0.295 N 
ATOM     58  H   THR A   9      10.059  33.041  19.486  0.00  0.00    +0.150 HD
ATOM     59  O   ASP A   8      12.862  31.924  18.534  0.00  0.00    -0.273 OA
BRANCH  57  60
ATOM     60  CA  THR A   9      10.151  31.205  18.360  0.00  0.00    +0.176 C 
BRANCH  60  61
ATOM     61  C   THR A   9       9.606  31.689  17.027  0.00  0.00    +0.243 C 
ATOM     62  O   THR A   9       8.860  32.661  16.988  0.00  0.00    -0.273 OA
ATOM     63  N   VAL A  10      10.000  31.029  15.934  0.00  0.00    -0.297 N 
ATOM     64  H   VAL A  10      10.711  30.275  16.019  0.00  0.00    +0.150 HD
BRANCH  63  65
ATOM     65  CA  VAL A  10       9.449  31.349  14.627  0.00  0.00    +0.149 C 
BRANCH  65  66
ATOM     66  C   VAL A  10       8.991  30.090  13.893  0.00  0.00    +0.241 C 
ATOM     67  O   VAL A  10       9.716  29.093  13.841  0.00  0.00    -0.273 OA
ATOM     68  N   LEU A  11       7.772  30.164  13.353  0.00  0.00    -0.298 N 
ATOM     69  H   LEU A  11       7.223  31.033  13.509  0.00  0.00    +0.150 HD
BRANCH  68  70
ATOM     70  CA  LEU A  11       7.160  29.103  12.558  0.00  0.00    +0.137 C 
BRANCH  70  71
ATOM     71  C   LEU A  11       6.816  29.685  11.187  0.00  0.00    +0.227 C 
ATOM     72  O   LEU A  11       6.477  30.863  11.086  0.00  0.00    -0.286 OA
ENDBRANCH  70  71
BRANCH  70  73
ATOM     73  CB  LEU A  11       5.870  28.608  13.225  0.00  0.00    +0.028 C 
BRANCH  73  74
ATOM     74  CG  LEU A  11       5.871  28.347  14.736  0.00  0.00    +0.002 C 
ATOM     75  CD2 LEU A  11       4.456  28.070  15.251  0.00  0.00    +0.000 C 
ATOM     76  CD1 LEU A  11       6.797  27.204  15.080  0.00  0.00    +0.000 C 
ENDBRANCH  73  74
ENDBRANCH  70  73
ENDBRANCH  68  70
ENDBRANCH  65  66
BRANCH  65  77
ATOM     77  CB  VAL A  10      10.424  32.210  13.764  0.00  0.00    +0.027 C 
ATOM     78  CG2 VAL A  10      11.717  31.476  13.463  0.00  0.00    +0.002 C 
ATOM     79  CG1 VAL A  10       9.738  32.683  12.478  0.00  0.00    +0.002 C 
ENDBRANCH  65  77
ENDBRANCH  63  65
ENDBRANCH  60  61
BRANCH  60  80
ATOM     80  CB  THR A   9       9.043  30.585  19.242  0.00  0.00    +0.137 C 
ATOM     81  CG2 THR A   9       8.191  29.568  18.494  0.00  0.00    +0.034 C 
BRANCH  80  82
ATOM     82  OG1 THR A   9       9.646  29.971  20.390  0.00  0.00    -0.382 OA
ATOM     83  HG1 THR A   9      10.141  30.655  20.907  0.00  0.00    +0.210 HD
ENDBRANCH  80  82
ENDBRANCH  60  80
ENDBRANCH  57  60
ENDBRANCH  55  56
BRANCH  55  84
ATOM     84  CB  ASP A   8      11.823  35.041  19.498  0.00  0.00    +0.143 C 
BRANCH  84  85
ATOM     85  CG  ASP A   8      11.613  36.065  20.573  0.00  0.00    +0.367 C 
ATOM     86  OD2 ASP A   8      10.711  35.873  21.432  0.00  0.00    -0.246 OA
ATOM     87  OD1 ASP A   8      12.363  37.055  20.565  0.00  0.00    -0.246 OA
ENDBRANCH  84  85
ENDBRANCH  55  84
ENDBRANCH  53  55
ENDBRANCH  50  51
BRANCH  50  88
ATOM     88  CB  ASP A   7      16.170  35.762  21.118  0.00  0.00    +0.143 C 
BRANCH  88  89
ATOM     89  CG  ASP A   7      17.654  36.157  21.021  0.00  0.00    +0.367 C 
ATOM     90  OD2 ASP A   7      18.539  35.410  21.472  0.00  0.00    -0.246 OA
ATOM     91  OD1 ASP A   7      17.932  37.249  20.499  0.00  0.00    -0.246 OA
ENDBRANCH  88  89
ENDBRANCH  50  88
ENDBRANCH   3  50
TORSDOF 39
REMARK  Name = ../refined-set-2016/2q5k/2q5k_pocket.pdb
REMARK  231 active torsions:
REMARK  status: ('A' for Active; 'I' for Inactive)
REMARK    1  A    between atoms: _1  and  _3
REMARK    2  A    between atoms: _3  and  _4
REMARK    3  A    between atoms: _3  and  _6
REMARK    4  A    between atoms: _6  and  _7
REMARK    5  A    between atoms: _7  and  _8
REMARK    6  A    between atoms: _8  and  _9
REMARK    7  A    between atoms: _18  and  _20
REMARK    8  A    between atoms: _20  and  _21
REMARK    9  A    between atoms: _20  and  _23
REMARK   10  A    between atoms: _23  and  _24
REMARK   11  A    between atoms: _27  and  _29
REMARK   12  A    between atoms: _29  and  _30
REMARK   13  A    between atoms: _29  and  _32
REMARK   14  A    between atoms: _32  and  _33
REMARK   15  A    between atoms: _36  and  _38
REMARK   16  A    between atoms: _38  and  _39
REMARK   17  A    between atoms: _38  and  _41
REMARK   18  A    between atoms: _41  and  _42
REMARK   19  A    between atoms: _45  and  _47
REMARK   20  A    between atoms: _47  and  _48
REMARK   21  A    between atoms: _47  and  _50
REMARK   22  A    between atoms: _50  and  _51
REMARK   23  A    between atoms: _54  and  _56
REMARK   24  A    between atoms: _56  and  _57
REMARK   25  A    between atoms: _59  and  _61
REMARK   26  A    between atoms: _61  and  _62
REMARK   27  A    between atoms: _65  and  _67
REMARK   28  A    between atoms: _67  and  _68
REMARK   29  A    between atoms: _67  and  _70
REMARK   30  A    between atoms: _70  and  _71
REMARK   31  A    between atoms: _74  and  _76
REMARK   32  A    between atoms: _76  and  _77
REMARK   33  A    between atoms: _76  and  _79
REMARK   34  A    between atoms: _79  and  _80
REMARK   35  A    between atoms: _83  and  _85
REMARK   36  A    between atoms: _85  and  _86
REMARK   37  A    between atoms: _85  and  _88
REMARK   38  A    between atoms: _88  and  _89
REMARK   39  A    between atoms: _92  and  _94
REMARK   40  A    between atoms: _94  and  _95
REMARK   41  A    between atoms: _94  and  _97
REMARK   42  A    between atoms: _100  and  _102
REMARK   43  A    between atoms: _102  and  _103
REMARK   44  A    between atoms: _102  and  _105
REMARK   45  A    between atoms: _105  and  _106
REMARK   46  A    between atoms: _106  and  _107
REMARK   47  A    between atoms: _107  and  _108
REMARK   48  A    between atoms: _108  and  _109
REMARK   49  A    between atoms: _113  and  _115
REMARK   50  A    between atoms: _115  and  _116
REMARK   51  A    between atoms: _115  and  _118
REMARK   52  A    between atoms: _118  and  _119
REMARK   53  A    between atoms: _119  and  _120
REMARK   54  A    between atoms: _122  and  _124
REMARK   55  A    between atoms: _124  and  _125
REMARK   56  A    between atoms: _124  and  _127
REMARK   57  A    between atoms: _127  and  _128
REMARK   58  A    between atoms: _131  and  _133
REMARK   59  A    between atoms: _133  and  _134
REMARK   60  A    between atoms: _136  and  _138
REMARK   61  A    between atoms: _138  and  _139
REMARK   62  A    between atoms: _141  and  _143
REMARK   63  A    between atoms: _143  and  _144
REMARK   64  A    between atoms: _143  and  _146
REMARK   65  A    between atoms: _146  and  _147
REMARK   66  A    between atoms: _150  and  _152
REMARK   67  A    between atoms: _152  and  _153
REMARK   68  A    between atoms: _155  and  _157
REMARK   69  A    between atoms: _157  and  _158
REMARK   70  A    between atoms: _160  and  _162
REMARK   71  A    between atoms: _162  and  _163
REMARK   72  A    between atoms: _162  and  _165
REMARK   73  A    between atoms: _165  and  _166
REMARK   74  A    between atoms: _172  and  _174
REMARK   75  A    between atoms: _174  and  _175
REMARK   76  A    between atoms: _174  and  _177
REMARK   77  A    between atoms: _177  and  _178
REMARK   78  A    between atoms: _181  and  _183
REMARK   79  A    between atoms: _183  and  _184
REMARK   80  A    between atoms: _183  and  _186
REMARK   81  A    between atoms: _186  and  _187
REMARK   82  A    between atoms: _191  and  _192
REMARK   83  A    between atoms: _197  and  _199
REMARK   84  A    between atoms: _199  and  _200
REMARK   85  A    between atoms: _199  and  _202
REMARK   86  A    between atoms: _202  and  _203
REMARK   87  A    between atoms: _207  and  _208
REMARK   88  A    between atoms: _213  and  _215
REMARK   89  A    between atoms: _215  and  _216
REMARK   90  A    between atoms: _215  and  _218
REMARK   91  A    between atoms: _221  and  _223
REMARK   92  A    between atoms: _223  and  _224
REMARK   93  A    between atoms: _223  and  _226
REMARK   94  A    between atoms: _226  and  _227
REMARK   95  A    between atoms: _232  and  _234
REMARK   96  A    between atoms: _234  and  _235
REMARK   97  A    between atoms: _234  and  _237
REMARK   98  A    between atoms: _237  and  _238
REMARK   99  A    between atoms: _241  and  _243
REMARK  100  A    between atoms: _243  and  _244
REMARK  101  A    between atoms: _243  and  _246
REMARK  102  A    between atoms: _246  and  _247
REMARK  103  A    between atoms: _250  and  _252
REMARK  104  A    between atoms: _252  and  _253
REMARK  105  A    between atoms: _255  and  _257
REMARK  106  A    between atoms: _257  and  _258
REMARK  107  A    between atoms: _257  and  _260
REMARK  108  A    between atoms: _260  and  _261
REMARK  109  A    between atoms: _261  and  _262
REMARK  110  A    between atoms: _262  and  _263
REMARK  111  A    between atoms: _272  and  _274
REMARK  112  A    between atoms: _274  and  _275
REMARK  113  A    between atoms: _274  and  _277
REMARK  114  A    between atoms: _277  and  _278
REMARK  115  A    between atoms: _278  and  _279
REMARK  116  A    between atoms: _279  and  _280
REMARK  117  A    between atoms: _289  and  _291
REMARK  118  A    between atoms: _291  and  _292
REMARK  119  A    between atoms: _291  and  _294
REMARK  120  A    between atoms: _294  and  _295
REMARK  121  A    between atoms: _298  and  _300
REMARK  122  A    between atoms: _300  and  _301
REMARK  123  A    between atoms: _300  and  _303
REMARK  124  A    between atoms: _303  and  _304
REMARK  125  A    between atoms: _307  and  _309
REMARK  126  A    between atoms: _309  and  _310
REMARK  127  A    between atoms: _309  and  _312
REMARK  128  A    between atoms: _312  and  _313
REMARK  129  A    between atoms: _316  and  _318
REMARK  130  A    between atoms: _318  and  _319
REMARK  131  A    between atoms: _318  and  _321
REMARK  132  A    between atoms: _321  and  _322
REMARK  133  A    between atoms: _325  and  _327
REMARK  134  A    between atoms: _327  and  _328
REMARK  135  A    between atoms: _330  and  _332
REMARK  136  A    between atoms: _332  and  _333
REMARK  137  A    between atoms: _336  and  _338
REMARK  138  A    between atoms: _338  and  _339
REMARK  139  A    between atoms: _338  and  _341
REMARK  140  A    between atoms: _341  and  _342
REMARK  141  A    between atoms: _345  and  _347
REMARK  142  A    between atoms: _347  and  _348
REMARK  143  A    between atoms: _347  and  _350
REMARK  144  A    between atoms: _350  and  _351
REMARK  145  A    between atoms: _354  and  _356
REMARK  146  A    between atoms: _356  and  _357
REMARK  147  A    between atoms: _356  and  _359
REMARK  148  A    between atoms: _359  and  _360
REMARK  149  A    between atoms: _363  and  _365
REMARK  150  A    between atoms: _365  and  _366
REMARK  151  A    between atoms: _365  and  _368
REMARK  152  A    between atoms: _371  and  _373
REMARK  153  A    between atoms: _373  and  _374
REMARK  154  A    between atoms: _373  and  _376
REMARK  155  A    between atoms: _376  and  _377
REMARK  156  A    between atoms: _380  and  _382
REMARK  157  A    between atoms: _382  and  _383
REMARK  158  A    between atoms: _382  and  _385
REMARK  159  A    between atoms: _385  and  _386
REMARK  160  A    between atoms: _386  and  _387
REMARK  161  A    between atoms: _387  and  _388
REMARK  162  A    between atoms: _388  and  _389
REMARK  163  A    between atoms: _393  and  _395
REMARK  164  A    between atoms: _395  and  _396
REMARK  165  A    between atoms: _395  and  _398
REMARK  166  A    between atoms: _398  and  _399
REMARK  167  A    between atoms: _399  and  _400
REMARK  168  A    between atoms: _402  and  _404
REMARK  169  A    between atoms: _404  and  _405
REMARK  170  A    between atoms: _404  and  _407
REMARK  171  A    between atoms: _407  and  _408
REMARK  172  A    between atoms: _411  and  _413
REMARK  173  A    between atoms: _413  and  _414
REMARK  174  A    between atoms: _416  and  _418
REMARK  175  A    between atoms: _418  and  _419
REMARK  176  A    between atoms: _421  and  _423
REMARK  177  A    between atoms: _423  and  _424
REMARK  178  A    between atoms: _423  and  _426
REMARK  179  A    between atoms: _426  and  _427
REMARK  180  A    between atoms: _430  and  _432
REMARK  181  A    between atoms: _432  and  _433
REMARK  182  A    between atoms: _435  and  _437
REMARK  183  A    between atoms: _437  and  _438
REMARK  184  A    between atoms: _440  and  _442
REMARK  185  A    between atoms: _442  and  _443
REMARK  186  A    between atoms: _442  and  _445
REMARK  187  A    between atoms: _445  and  _446
REMARK  188  A    between atoms: _452  and  _454
REMARK  189  A    between atoms: _454  and  _455
REMARK  190  A    between atoms: _454  and  _457
REMARK  191  A    between atoms: _457  and  _458
REMARK  192  A    between atoms: _461  and  _463
REMARK  193  A    between atoms: _463  and  _464
REMARK  194  A    between atoms: _463  and  _466
REMARK  195  A    between atoms: _469  and  _471
REMARK  196  A    between atoms: _471  and  _472
REMARK  197  A    between atoms: _471  and  _474
REMARK  198  A    between atoms: _474  and  _475
REMARK  199  A    between atoms: _479  and  _480
REMARK  200  A    between atoms: _485  and  _487
REMARK  201  A    between atoms: _487  and  _488
REMARK  202  A    between atoms: _487  and  _490
REMARK  203  A    between atoms: _490  and  _491
REMARK  204  A    between atoms: _495  and  _496
REMARK  205  A    between atoms: _501  and  _503
REMARK  206  A    between atoms: _503  and  _504
REMARK  207  A    between atoms: _503  and  _506
REMARK  208  A    between atoms: _509  and  _511
REMARK  209  A    between atoms: _511  and  _512
REMARK  210  A    between atoms: _511  and  _514
REMARK  211  A    between atoms: _514  and  _515
REMARK  212  A    between atoms: _520  and  _522
REMARK  213  A    between atoms: _522  and  _523
REMARK  214  A    between atoms: _522  and  _525
REMARK  215  A    between atoms: _525  and  _526
REMARK  216  A    between atoms: _529  and  _531
REMARK  217  A    between atoms: _531  and  _532
REMARK  218  A    between atoms: _531  and  _534
REMARK  219  A    between atoms: _534  and  _535
REMARK  220  A    between atoms: _538  and  _540
REMARK  221  A    between atoms: _540  and  _541
REMARK  222  A    between atoms: _543  and  _545
REMARK  223  A    between atoms: _545  and  _546
REMARK  224  A    between atoms: _545  and  _548
REMARK  225  A    between atoms: _548  and  _549
REMARK  226  A    between atoms: _549  and  _550
REMARK  227  A    between atoms: _550  and  _551
REMARK  228  A    between atoms: _560  and  _562
REMARK  229  A    between atoms: _562  and  _563
REMARK  230  A    between atoms: _562  and  _565
REMARK  231  A    between atoms: _565  and  _566
REMARK                            x       y       z     vdW  Elec       q    Type
REMARK                         _______ _______ _______ _____ _____    ______ ____
ROOT
ATOM      1  C   GLY A   5      21.274  34.935  10.793  0.00  0.00    +0.243 C 
ATOM      2  O   GLY A   5      21.875  36.006  10.786  0.00  0.00    -0.273 OA
ATOM      3  N   ILE A   6      21.817  33.822  10.320  0.00  0.00    -0.297 N 
ATOM      4  H   ILE A   6      21.243  32.962  10.209  0.00  0.00    +0.150 HD
ENDROOT
BRANCH   3   5
ATOM      5  CA  ILE A   6      23.233  33.820   9.956  0.00  0.00    +0.149 C 
BRANCH   5   6
ATOM      6  C   ILE A   6      23.526  34.672   8.718  0.00  0.00    +0.241 C 
ATOM      7  O   ILE A   6      24.624  35.221   8.596  0.00  0.00    -0.273 OA
ATOM      8  N   GLY A   7      22.538  34.806   7.831  0.00  0.00    -0.295 N 
ATOM      9  H   GLY A   7      21.609  34.394   8.050  0.00  0.00    +0.150 HD
BRANCH   8  10
ATOM     10  CA  GLY A   7      22.714  35.510   6.564  0.00  0.00    +0.176 C 
BRANCH  10  11
ATOM     11  C   GLY A   7      22.164  36.926   6.490  0.00  0.00    +0.243 C 
ATOM     12  N   GLY A   8      21.434  37.344   7.518  0.00  0.00    -0.295 N 
ATOM     13  H   GLY A   8      21.330  36.724   8.346  0.00  0.00    +0.150 HD
ATOM     14  O   GLY A   7      22.392  37.627   5.498  0.00  0.00    -0.273 OA
BRANCH  12  15
ATOM     15  CA  GLY A   8      20.775  38.643   7.522  0.00  0.00    +0.176 C 
BRANCH  15  16
ATOM     16  C   GLY A   8      19.457  38.539   8.258  0.00  0.00    +0.243 C 
ATOM     17  O   GLY A   8      19.293  37.662   9.107  0.00  0.00    -0.273 OA
ATOM     18  N   PHE A   9      18.509  39.402   7.902  0.00  0.00    -0.297 N 
ATOM     19  H   PHE A   9      18.697  40.051   7.111  0.00  0.00    +0.150 HD
BRANCH  18  20
ATOM     20  CA  PHE A   9      17.204  39.477   8.582  0.00  0.00    +0.153 C 
BRANCH  20  21
ATOM     21  C   PHE A   9      16.044  38.984   7.731  0.00  0.00    +0.241 C 
ATOM     22  N   ILE A  10      15.009  38.478   8.401  0.00  0.00    -0.298 N 
ATOM     23  H   ILE A  10      15.130  38.226   9.403  0.00  0.00    +0.150 HD
ATOM     24  O   PHE A   9      16.088  39.060   6.499  0.00  0.00    -0.273 OA
BRANCH  22  25
ATOM     25  CA  ILE A  10      13.706  38.267   7.766  0.00  0.00    +0.137 C 
BRANCH  25  26
ATOM     26  C   ILE A  10      12.629  39.043   8.527  0.00  0.00    +0.227 C 
ATOM     27  O   ILE A  10      12.784  39.344   9.711  0.00  0.00    -0.286 OA
ENDBRANCH  25  26
BRANCH  25  28
ATOM     28  CB  ILE A  10      13.317  36.764   7.643  0.00  0.00    +0.026 C 
ATOM     29  CG2 ILE A  10      14.358  36.021   6.798  0.00  0.00    +0.002 C 
BRANCH  28  30
ATOM     30  CG1 ILE A  10      13.129  36.125   9.026  0.00  0.00    +0.002 C 
ATOM     31  CD1 ILE A  10      12.521  34.730   8.978  0.00  0.00    +0.000 C 
ENDBRANCH  28  30
ENDBRANCH  25  28
ENDBRANCH  22  25
ENDBRANCH  20  21
BRANCH  20  32
ATOM     32  CB  PHE A   9      16.902  40.923   8.988  0.00  0.00    +0.055 C 
BRANCH  32  33
ATOM     33  CG  PHE A   9      17.710  41.408  10.153  0.00  0.00    -0.020 A 
ATOM     34  CD2 PHE A   9      17.161  41.436  11.435  0.00  0.00    -0.004 A 
ATOM     35  CE2 PHE A   9      17.902  41.886  12.517  0.00  0.00    -0.000 A 
ATOM     36  CZ  PHE A   9      19.190  42.328  12.326  0.00  0.00    -0.000 A 
ATOM     37  CE1 PHE A   9      19.744  42.324  11.049  0.00  0.00    -0.000 A 
ATOM     38  CD1 PHE A   9      18.999  41.868   9.970  0.00  0.00    -0.004 A 
ENDBRANCH  32  33
ENDBRANCH  20  32
ENDBRANCH  18  20
ENDBRANCH  15  16
ENDBRANCH  12  15
ENDBRANCH  10  11
ENDBRANCH   8  10
ENDBRANCH   5   6
BRANCH   5  39
ATOM     39  CB  ILE A   6      23.809  32.390   9.817  0.00  0.00    +0.027 C 
ATOM     40  CG2 ILE A   6      23.310  31.717   8.536  0.00  0.00    +0.002 C 
BRANCH  39  41
ATOM     41  CG1 ILE A   6      25.343  32.445   9.877  0.00  0.00    +0.002 C 
ATOM     42  CD1 ILE A   6      25.968  31.482  10.824  0.00  0.00    +0.000 C 
ENDBRANCH  39  41
ENDBRANCH   5  39
ENDBRANCH   3   5
BRANCH   1  43
ATOM     43  CA  GLY A   5      19.860  34.845  11.337  0.00  0.00    +0.176 C 
BRANCH  43  46
ATOM     44  C   GLY A   4      18.825  36.701  12.570  0.00  0.00    +0.243 C 
ATOM     45  O   GLY A   4      18.717  36.067  13.632  0.00  0.00    -0.273 OA
ATOM     46  N   GLY A   5      19.301  36.182  11.438  0.00  0.00    -0.295 N 
ATOM     47  H   GLY A   5      19.270  36.767  10.579  0.00  0.00    +0.150 HD
BRANCH  44  48
ATOM     48  CA  GLY A   4      18.408  38.156  12.474  0.00  0.00    +0.176 C 
BRANCH  48  50
ATOM     49  C   ILE A   3      15.992  38.525  12.458  0.00  0.00    +0.241 C 
ATOM     50  N   GLY A   4      17.138  38.446  13.124  0.00  0.00    -0.295 N 
ATOM     51  H   GLY A   4      17.128  38.598  14.153  0.00  0.00    +0.150 HD
ATOM     52  O   ILE A   3      15.880  38.308  11.245  0.00  0.00    -0.273 OA
BRANCH  49  53
ATOM     53  CA  ILE A   3      14.788  38.920  13.294  0.00  0.00    +0.149 C 
BRANCH  53  56
ATOM     54  C   MET A   2      13.547  40.991  12.926  0.00  0.00    +0.241 C 
ATOM     55  O   MET A   2      13.915  41.447  13.998  0.00  0.00    -0.273 OA
ATOM     56  N   ILE A   3      13.866  39.764  12.520  0.00  0.00    -0.297 N 
ATOM     57  H   ILE A   3      13.455  39.395  11.639  0.00  0.00    +0.150 HD
BRANCH  54  58
ATOM     58  CA  MET A   2      12.679  41.843  12.011  0.00  0.00    +0.149 C 
BRANCH  58  60
ATOM     59  C   LYS A   1      10.297  42.083  12.533  0.00  0.00    +0.238 C 
ATOM     60  N   MET A   2      11.563  42.411  12.782  0.00  0.00    -0.297 N 
ATOM     61  H   MET A   2      11.769  43.088  13.544  0.00  0.00    +0.150 HD
ATOM     62  O   LYS A   1       9.973  41.382  11.584  0.00  0.00    -0.274 OA
BRANCH  59  63
ATOM     63  CA  LYS A   1       9.230  42.603  13.499  0.00  0.00    +0.145 C 
BRANCH  63  64
ATOM     64  N   LYS A   1       7.967  42.702  12.794  0.00  0.00    -0.238 NA
ATOM     65  H   LYS A   1       7.810  42.097  11.963  0.00  0.00    +0.142 HD
ENDBRANCH  63  64
BRANCH  63  66
ATOM     66  CB  LYS A   1       9.075  41.633  14.678  0.00  0.00    +0.026 C 
BRANCH  66  67
ATOM     67  CG  LYS A   1      10.342  41.427  15.458  0.00  0.00    -0.000 C 
BRANCH  67  68
ATOM     68  CD  LYS A   1      10.120  40.671  16.741  0.00  0.00    -0.024 C 
BRANCH  68  69
ATOM     69  CE  LYS A   1      11.436  40.549  17.498  0.00  0.00    -0.086 C 
BRANCH  69  70
ATOM     70  NZ  LYS A   1      11.254  40.887  18.893  0.00  0.00    +0.380 N 
ATOM     71  HZ1 LYS A   1      12.162  40.798  19.391  0.00  0.00    -0.089 HD
ATOM     72  HZ2 LYS A   1      10.559  40.240  19.317  0.00  0.00    -0.089 HD
ATOM     73  HZ3 LYS A   1      10.910  41.866  18.969  0.00  0.00    -0.089 HD
ENDBRANCH  69  70
ENDBRANCH  68  69
ENDBRANCH  67  68
ENDBRANCH  66  67
ENDBRANCH  63  66
ENDBRANCH  59  63
ENDBRANCH  58  60
BRANCH  58  74
ATOM     74  CB  MET A   2      13.532  42.970  11.426  0.00  0.00    +0.041 C 
BRANCH  74  75
ATOM     75  CG  MET A   2      12.782  43.902  10.530  0.00  0.00    +0.060 C 
BRANCH  75  76
ATOM     76  SD  MET A   2      12.488  43.112   8.965  0.00  0.00    -0.139 S 
ATOM     77  CE  MET A   2      14.002  43.523   8.093  0.00  0.00    +0.069 C 
ENDBRANCH  75  76
ENDBRANCH  74  75
ENDBRANCH  58  74
ENDBRANCH  54  58
ENDBRANCH  53  56
BRANCH  53  78
ATOM     78  CB  ILE A   3      14.119  37.630  13.865  0.00  0.00    +0.027 C 
ATOM     79  CG2 ILE A   3      13.026  37.996  14.843  0.00  0.00    +0.002 C 
BRANCH  78  80
ATOM     80  CG1 ILE A   3      13.579  36.744  12.738  0.00  0.00    +0.002 C 
ATOM     81  CD1 ILE A   3      13.058  35.414  13.210  0.00  0.00    +0.000 C 
ENDBRANCH  78  80
ENDBRANCH  53  78
ENDBRANCH  49  53
ENDBRANCH  48  50
ENDBRANCH  44  48
ENDBRANCH  43  46
ENDBRANCH   1  43
TORSDOF 36
REMARK  Name = ../refined-set-2016/2q5k/2q5k_pocket.pdb
REMARK  231 active torsions:
REMARK  status: ('A' for Active; 'I' for Inactive)
REMARK    1  A    between atoms: _1  and  _3
REMARK    2  A    between atoms: _3  and  _4
REMARK    3  A    between atoms: _3  and  _6
REMARK    4  A    between atoms: _6  and  _7
REMARK    5  A    between atoms: _7  and  _8
REMARK    6  A    between atoms: _8  and  _9
REMARK    7  A    between atoms: _18  and  _20
REMARK    8  A    between atoms: _20  and  _21
REMARK    9  A    between atoms: _20  and  _23
REMARK   10  A    between atoms: _23  and  _24
REMARK   11  A    between atoms: _27  and  _29
REMARK   12  A    between atoms: _29  and  _30
REMARK   13  A    between atoms: _29  and  _32
REMARK   14  A    between atoms: _32  and  _33
REMARK   15  A    between atoms: _36  and  _38
REMARK   16  A    between atoms: _38  and  _39
REMARK   17  A    between atoms: _38  and  _41
REMARK   18  A    between atoms: _41  and  _42
REMARK   19  A    between atoms: _45  and  _47
REMARK   20  A    between atoms: _47  and  _48
REMARK   21  A    between atoms: _47  and  _50
REMARK   22  A    between atoms: _50  and  _51
REMARK   23  A    between atoms: _54  and  _56
REMARK   24  A    between atoms: _56  and  _57
REMARK   25  A    between atoms: _59  and  _61
REMARK   26  A    between atoms: _61  and  _62
REMARK   27  A    between atoms: _65  and  _67
REMARK   28  A    between atoms: _67  and  _68
REMARK   29  A    between atoms: _67  and  _70
REMARK   30  A    between atoms: _70  and  _71
REMARK   31  A    between atoms: _74  and  _76
REMARK   32  A    between atoms: _76  and  _77
REMARK   33  A    between atoms: _76  and  _79
REMARK   34  A    between atoms: _79  and  _80
REMARK   35  A    between atoms: _83  and  _85
REMARK   36  A    between atoms: _85  and  _86
REMARK   37  A    between atoms: _85  and  _88
REMARK   38  A    between atoms: _88  and  _89
REMARK   39  A    between atoms: _92  and  _94
REMARK   40  A    between atoms: _94  and  _95
REMARK   41  A    between atoms: _94  and  _97
REMARK   42  A    between atoms: _100  and  _102
REMARK   43  A    between atoms: _102  and  _103
REMARK   44  A    between atoms: _102  and  _105
REMARK   45  A    between atoms: _105  and  _106
REMARK   46  A    between atoms: _106  and  _107
REMARK   47  A    between atoms: _107  and  _108
REMARK   48  A    between atoms: _108  and  _109
REMARK   49  A    between atoms: _113  and  _115
REMARK   50  A    between atoms: _115  and  _116
REMARK   51  A    between atoms: _115  and  _118
REMARK   52  A    between atoms: _118  and  _119
REMARK   53  A    between atoms: _119  and  _120
REMARK   54  A    between atoms: _122  and  _124
REMARK   55  A    between atoms: _124  and  _125
REMARK   56  A    between atoms: _124  and  _127
REMARK   57  A    between atoms: _127  and  _128
REMARK   58  A    between atoms: _131  and  _133
REMARK   59  A    between atoms: _133  and  _134
REMARK   60  A    between atoms: _136  and  _138
REMARK   61  A    between atoms: _138  and  _139
REMARK   62  A    between atoms: _141  and  _143
REMARK   63  A    between atoms: _143  and  _144
REMARK   64  A    between atoms: _143  and  _146
REMARK   65  A    between atoms: _146  and  _147
REMARK   66  A    between atoms: _150  and  _152
REMARK   67  A    between atoms: _152  and  _153
REMARK   68  A    between atoms: _155  and  _157
REMARK   69  A    between atoms: _157  and  _158
REMARK   70  A    between atoms: _160  and  _162
REMARK   71  A    between atoms: _162  and  _163
REMARK   72  A    between atoms: _162  and  _165
REMARK   73  A    between atoms: _165  and  _166
REMARK   74  A    between atoms: _172  and  _174
REMARK   75  A    between atoms: _174  and  _175
REMARK   76  A    between atoms: _174  and  _177
REMARK   77  A    between atoms: _177  and  _178
REMARK   78  A    between atoms: _181  and  _183
REMARK   79  A    between atoms: _183  and  _184
REMARK   80  A    between atoms: _183  and  _186
REMARK   81  A    between atoms: _186  and  _187
REMARK   82  A    between atoms: _191  and  _192
REMARK   83  A    between atoms: _197  and  _199
REMARK   84  A    between atoms: _199  and  _200
REMARK   85  A    between atoms: _199  and  _202
REMARK   86  A    between atoms: _202  and  _203
REMARK   87  A    between atoms: _207  and  _208
REMARK   88  A    between atoms: _213  and  _215
REMARK   89  A    between atoms: _215  and  _216
REMARK   90  A    between atoms: _215  and  _218
REMARK   91  A    between atoms: _221  and  _223
REMARK   92  A    between atoms: _223  and  _224
REMARK   93  A    between atoms: _223  and  _226
REMARK   94  A    between atoms: _226  and  _227
REMARK   95  A    between atoms: _232  and  _234
REMARK   96  A    between atoms: _234  and  _235
REMARK   97  A    between atoms: _234  and  _237
REMARK   98  A    between atoms: _237  and  _238
REMARK   99  A    between atoms: _241  and  _243
REMARK  100  A    between atoms: _243  and  _244
REMARK  101  A    between atoms: _243  and  _246
REMARK  102  A    between atoms: _246  and  _247
REMARK  103  A    between atoms: _250  and  _252
REMARK  104  A    between atoms: _252  and  _253
REMARK  105  A    between atoms: _255  and  _257
REMARK  106  A    between atoms: _257  and  _258
REMARK  107  A    between atoms: _257  and  _260
REMARK  108  A    between atoms: _260  and  _261
REMARK  109  A    between atoms: _261  and  _262
REMARK  110  A    between atoms: _262  and  _263
REMARK  111  A    between atoms: _272  and  _274
REMARK  112  A    between atoms: _274  and  _275
REMARK  113  A    between atoms: _274  and  _277
REMARK  114  A    between atoms: _277  and  _278
REMARK  115  A    between atoms: _278  and  _279
REMARK  116  A    between atoms: _279  and  _280
REMARK  117  A    between atoms: _289  and  _291
REMARK  118  A    between atoms: _291  and  _292
REMARK  119  A    between atoms: _291  and  _294
REMARK  120  A    between atoms: _294  and  _295
REMARK  121  A    between atoms: _298  and  _300
REMARK  122  A    between atoms: _300  and  _301
REMARK  123  A    between atoms: _300  and  _303
REMARK  124  A    between atoms: _303  and  _304
REMARK  125  A    between atoms: _307  and  _309
REMARK  126  A    between atoms: _309  and  _310
REMARK  127  A    between atoms: _309  and  _312
REMARK  128  A    between atoms: _312  and  _313
REMARK  129  A    between atoms: _316  and  _318
REMARK  130  A    between atoms: _318  and  _319
REMARK  131  A    between atoms: _318  and  _321
REMARK  132  A    between atoms: _321  and  _322
REMARK  133  A    between atoms: _325  and  _327
REMARK  134  A    between atoms: _327  and  _328
REMARK  135  A    between atoms: _330  and  _332
REMARK  136  A    between atoms: _332  and  _333
REMARK  137  A    between atoms: _336  and  _338
REMARK  138  A    between atoms: _338  and  _339
REMARK  139  A    between atoms: _338  and  _341
REMARK  140  A    between atoms: _341  and  _342
REMARK  141  A    between atoms: _345  and  _347
REMARK  142  A    between atoms: _347  and  _348
REMARK  143  A    between atoms: _347  and  _350
REMARK  144  A    between atoms: _350  and  _351
REMARK  145  A    between atoms: _354  and  _356
REMARK  146  A    between atoms: _356  and  _357
REMARK  147  A    between atoms: _356  and  _359
REMARK  148  A    between atoms: _359  and  _360
REMARK  149  A    between atoms: _363  and  _365
REMARK  150  A    between atoms: _365  and  _366
REMARK  151  A    between atoms: _365  and  _368
REMARK  152  A    between atoms: _371  and  _373
REMARK  153  A    between atoms: _373  and  _374
REMARK  154  A    between atoms: _373  and  _376
REMARK  155  A    between atoms: _376  and  _377
REMARK  156  A    between atoms: _380  and  _382
REMARK  157  A    between atoms: _382  and  _383
REMARK  158  A    between atoms: _382  and  _385
REMARK  159  A    between atoms: _385  and  _386
REMARK  160  A    between atoms: _386  and  _387
REMARK  161  A    between atoms: _387  and  _388
REMARK  162  A    between atoms: _388  and  _389
REMARK  163  A    between atoms: _393  and  _395
REMARK  164  A    between atoms: _395  and  _396
REMARK  165  A    between atoms: _395  and  _398
REMARK  166  A    between atoms: _398  and  _399
REMARK  167  A    between atoms: _399  and  _400
REMARK  168  A    between atoms: _402  and  _404
REMARK  169  A    between atoms: _404  and  _405
REMARK  170  A    between atoms: _404  and  _407
REMARK  171  A    between atoms: _407  and  _408
REMARK  172  A    between atoms: _411  and  _413
REMARK  173  A    between atoms: _413  and  _414
REMARK  174  A    between atoms: _416  and  _418
REMARK  175  A    between atoms: _418  and  _419
REMARK  176  A    between atoms: _421  and  _423
REMARK  177  A    between atoms: _423  and  _424
REMARK  178  A    between atoms: _423  and  _426
REMARK  179  A    between atoms: _426  and  _427
REMARK  180  A    between atoms: _430  and  _432
REMARK  181  A    between atoms: _432  and  _433
REMARK  182  A    between atoms: _435  and  _437
REMARK  183  A    between atoms: _437  and  _438
REMARK  184  A    between atoms: _440  and  _442
REMARK  185  A    between atoms: _442  and  _443
REMARK  186  A    between atoms: _442  and  _445
REMARK  187  A    between atoms: _445  and  _446
REMARK  188  A    between atoms: _452  and  _454
REMARK  189  A    between atoms: _454  and  _455
REMARK  190  A    between atoms: _454  and  _457
REMARK  191  A    between atoms: _457  and  _458
REMARK  192  A    between atoms: _461  and  _463
REMARK  193  A    between atoms: _463  and  _464
REMARK  194  A    between atoms: _463  and  _466
REMARK  195  A    between atoms: _469  and  _471
REMARK  196  A    between atoms: _471  and  _472
REMARK  197  A    between atoms: _471  and  _474
REMARK  198  A    between atoms: _474  and  _475
REMARK  199  A    between atoms: _479  and  _480
REMARK  200  A    between atoms: _485  and  _487
REMARK  201  A    between atoms: _487  and  _488
REMARK  202  A    between atoms: _487  and  _490
REMARK  203  A    between atoms: _490  and  _491
REMARK  204  A    between atoms: _495  and  _496
REMARK  205  A    between atoms: _501  and  _503
REMARK  206  A    between atoms: _503  and  _504
REMARK  207  A    between atoms: _503  and  _506
REMARK  208  A    between atoms: _509  and  _511
REMARK  209  A    between atoms: _511  and  _512
REMARK  210  A    between atoms: _511  and  _514
REMARK  211  A    between atoms: _514  and  _515
REMARK  212  A    between atoms: _520  and  _522
REMARK  213  A    between atoms: _522  and  _523
REMARK  214  A    between atoms: _522  and  _525
REMARK  215  A    between atoms: _525  and  _526
REMARK  216  A    between atoms: _529  and  _531
REMARK  217  A    between atoms: _531  and  _532
REMARK  218  A    between atoms: _531  and  _534
REMARK  219  A    between atoms: _534  and  _535
REMARK  220  A    between atoms: _538  and  _540
REMARK  221  A    between atoms: _540  and  _541
REMARK  222  A    between atoms: _543  and  _545
REMARK  223  A    between atoms: _545  and  _546
REMARK  224  A    between atoms: _545  and  _548
REMARK  225  A    between atoms: _548  and  _549
REMARK  226  A    between atoms: _549  and  _550
REMARK  227  A    between atoms: _550  and  _551
REMARK  228  A    between atoms: _560  and  _562
REMARK  229  A    between atoms: _562  and  _563
REMARK  230  A    between atoms: _562  and  _565
REMARK  231  A    between atoms: _565  and  _566
REMARK                            x       y       z     vdW  Elec       q    Type
REMARK                         _______ _______ _______ _____ _____    ______ ____
ROOT
ATOM      1  CA  VAL A   1       7.958  38.272  10.707  0.00  0.00    +0.133 C 
ENDROOT
BRANCH   1   2
ATOM      2  CB  VAL A   1       8.636  37.362  11.775  0.00  0.00    +0.023 C 
ATOM      3  CG2 VAL A   1       9.191  38.183  12.939  0.00  0.00    +0.002 C 
ATOM      4  CG1 VAL A   1       9.769  36.563  11.149  0.00  0.00    +0.002 C 
ENDBRANCH   1   2
BRANCH   1   5
ATOM      5  N   VAL A   1       8.917  39.189  10.117  0.00  0.00    -0.239 NA
ATOM      6  H   VAL A   1       9.214  40.025  10.659  0.00  0.00    +0.142 HD
ENDBRANCH   1   5
BRANCH   1   7
ATOM      7  C   VAL A   1       6.791  39.036  11.322  0.00  0.00    +0.224 C 
ATOM      8  O   VAL A   1       6.839  40.266  11.455  0.00  0.00    -0.287 OA
ENDBRANCH   1   7
TORSDOF 3
REMARK  Name = ../refined-set-2016/2q5k/2q5k_pocket.pdb
REMARK  231 active torsions:
REMARK  status: ('A' for Active; 'I' for Inactive)
REMARK    1  A    between atoms: _1  and  _3
REMARK    2  A    between atoms: _3  and  _4
REMARK    3  A    between atoms: _3  and  _6
REMARK    4  A    between atoms: _6  and  _7
REMARK    5  A    between atoms: _7  and  _8
REMARK    6  A    between atoms: _8  and  _9
REMARK    7  A    between atoms: _18  and  _20
REMARK    8  A    between atoms: _20  and  _21
REMARK    9  A    between atoms: _20  and  _23
REMARK   10  A    between atoms: _23  and  _24
REMARK   11  A    between atoms: _27  and  _29
REMARK   12  A    between atoms: _29  and  _30
REMARK   13  A    between atoms: _29  and  _32
REMARK   14  A    between atoms: _32  and  _33
REMARK   15  A    between atoms: _36  and  _38
REMARK   16  A    between atoms: _38  and  _39
REMARK   17  A    between atoms: _38  and  _41
REMARK   18  A    between atoms: _41  and  _42
REMARK   19  A    between atoms: _45  and  _47
REMARK   20  A    between atoms: _47  and  _48
REMARK   21  A    between atoms: _47  and  _50
REMARK   22  A    between atoms: _50  and  _51
REMARK   23  A    between atoms: _54  and  _56
REMARK   24  A    between atoms: _56  and  _57
REMARK   25  A    between atoms: _59  and  _61
REMARK   26  A    between atoms: _61  and  _62
REMARK   27  A    between atoms: _65  and  _67
REMARK   28  A    between atoms: _67  and  _68
REMARK   29  A    between atoms: _67  and  _70
REMARK   30  A    between atoms: _70  and  _71
REMARK   31  A    between atoms: _74  and  _76
REMARK   32  A    between atoms: _76  and  _77
REMARK   33  A    between atoms: _76  and  _79
REMARK   34  A    between atoms: _79  and  _80
REMARK   35  A    between atoms: _83  and  _85
REMARK   36  A    between atoms: _85  and  _86
REMARK   37  A    between atoms: _85  and  _88
REMARK   38  A    between atoms: _88  and  _89
REMARK   39  A    between atoms: _92  and  _94
REMARK   40  A    between atoms: _94  and  _95
REMARK   41  A    between atoms: _94  and  _97
REMARK   42  A    between atoms: _100  and  _102
REMARK   43  A    between atoms: _102  and  _103
REMARK   44  A    between atoms: _102  and  _105
REMARK   45  A    between atoms: _105  and  _106
REMARK   46  A    between atoms: _106  and  _107
REMARK   47  A    between atoms: _107  and  _108
REMARK   48  A    between atoms: _108  and  _109
REMARK   49  A    between atoms: _113  and  _115
REMARK   50  A    between atoms: _115  and  _116
REMARK   51  A    between atoms: _115  and  _118
REMARK   52  A    between atoms: _118  and  _119
REMARK   53  A    between atoms: _119  and  _120
REMARK   54  A    between atoms: _122  and  _124
REMARK   55  A    between atoms: _124  and  _125
REMARK   56  A    between atoms: _124  and  _127
REMARK   57  A    between atoms: _127  and  _128
REMARK   58  A    between atoms: _131  and  _133
REMARK   59  A    between atoms: _133  and  _134
REMARK   60  A    between atoms: _136  and  _138
REMARK   61  A    between atoms: _138  and  _139
REMARK   62  A    between atoms: _141  and  _143
REMARK   63  A    between atoms: _143  and  _144
REMARK   64  A    between atoms: _143  and  _146
REMARK   65  A    between atoms: _146  and  _147
REMARK   66  A    between atoms: _150  and  _152
REMARK   67  A    between atoms: _152  and  _153
REMARK   68  A    between atoms: _155  and  _157
REMARK   69  A    between atoms: _157  and  _158
REMARK   70  A    between atoms: _160  and  _162
REMARK   71  A    between atoms: _162  and  _163
REMARK   72  A    between atoms: _162  and  _165
REMARK   73  A    between atoms: _165  and  _166
REMARK   74  A    between atoms: _172  and  _174
REMARK   75  A    between atoms: _174  and  _175
REMARK   76  A    between atoms: _174  and  _177
REMARK   77  A    between atoms: _177  and  _178
REMARK   78  A    between atoms: _181  and  _183
REMARK   79  A    between atoms: _183  and  _184
REMARK   80  A    between atoms: _183  and  _186
REMARK   81  A    between atoms: _186  and  _187
REMARK   82  A    between atoms: _191  and  _192
REMARK   83  A    between atoms: _197  and  _199
REMARK   84  A    between atoms: _199  and  _200
REMARK   85  A    between atoms: _199  and  _202
REMARK   86  A    between atoms: _202  and  _203
REMARK   87  A    between atoms: _207  and  _208
REMARK   88  A    between atoms: _213  and  _215
REMARK   89  A    between atoms: _215  and  _216
REMARK   90  A    between atoms: _215  and  _218
REMARK   91  A    between atoms: _221  and  _223
REMARK   92  A    between atoms: _223  and  _224
REMARK   93  A    between atoms: _223  and  _226
REMARK   94  A    between atoms: _226  and  _227
REMARK   95  A    between atoms: _232  and  _234
REMARK   96  A    between atoms: _234  and  _235
REMARK   97  A    between atoms: _234  and  _237
REMARK   98  A    between atoms: _237  and  _238
REMARK   99  A    between atoms: _241  and  _243
REMARK  100  A    between atoms: _243  and  _244
REMARK  101  A    between atoms: _243  and  _246
REMARK  102  A    between atoms: _246  and  _247
REMARK  103  A    between atoms: _250  and  _252
REMARK  104  A    between atoms: _252  and  _253
REMARK  105  A    between atoms: _255  and  _257
REMARK  106  A    between atoms: _257  and  _258
REMARK  107  A    between atoms: _257  and  _260
REMARK  108  A    between atoms: _260  and  _261
REMARK  109  A    between atoms: _261  and  _262
REMARK  110  A    between atoms: _262  and  _263
REMARK  111  A    between atoms: _272  and  _274
REMARK  112  A    between atoms: _274  and  _275
REMARK  113  A    between atoms: _274  and  _277
REMARK  114  A    between atoms: _277  and  _278
REMARK  115  A    between atoms: _278  and  _279
REMARK  116  A    between atoms: _279  and  _280
REMARK  117  A    between atoms: _289  and  _291
REMARK  118  A    between atoms: _291  and  _292
REMARK  119  A    between atoms: _291  and  _294
REMARK  120  A    between atoms: _294  and  _295
REMARK  121  A    between atoms: _298  and  _300
REMARK  122  A    between atoms: _300  and  _301
REMARK  123  A    between atoms: _300  and  _303
REMARK  124  A    between atoms: _303  and  _304
REMARK  125  A    between atoms: _307  and  _309
REMARK  126  A    between atoms: _309  and  _310
REMARK  127  A    between atoms: _309  and  _312
REMARK  128  A    between atoms: _312  and  _313
REMARK  129  A    between atoms: _316  and  _318
REMARK  130  A    between atoms: _318  and  _319
REMARK  131  A    between atoms: _318  and  _321
REMARK  132  A    between atoms: _321  and  _322
REMARK  133  A    between atoms: _325  and  _327
REMARK  134  A    between atoms: _327  and  _328
REMARK  135  A    between atoms: _330  and  _332
REMARK  136  A    between atoms: _332  and  _333
REMARK  137  A    between atoms: _336  and  _338
REMARK  138  A    between atoms: _338  and  _339
REMARK  139  A    between atoms: _338  and  _341
REMARK  140  A    between atoms: _341  and  _342
REMARK  141  A    between atoms: _345  and  _347
REMARK  142  A    between atoms: _347  and  _348
REMARK  143  A    between atoms: _347  and  _350
REMARK  144  A    between atoms: _350  and  _351
REMARK  145  A    between atoms: _354  and  _356
REMARK  146  A    between atoms: _356  and  _357
REMARK  147  A    between atoms: _356  and  _359
REMARK  148  A    between atoms: _359  and  _360
REMARK  149  A    between atoms: _363  and  _365
REMARK  150  A    between atoms: _365  and  _366
REMARK  151  A    between atoms: _365  and  _368
REMARK  152  A    between atoms: _371  and  _373
REMARK  153  A    between atoms: _373  and  _374
REMARK  154  A    between atoms: _373  and  _376
REMARK  155  A    between atoms: _376  and  _377
REMARK  156  A    between atoms: _380  and  _382
REMARK  157  A    between atoms: _382  and  _383
REMARK  158  A    between atoms: _382  and  _385
REMARK  159  A    between atoms: _385  and  _386
REMARK  160  A    between atoms: _386  and  _387
REMARK  161  A    between atoms: _387  and  _388
REMARK  162  A    between atoms: _388  and  _389
REMARK  163  A    between atoms: _393  and  _395
REMARK  164  A    between atoms: _395  and  _396
REMARK  165  A    between atoms: _395  and  _398
REMARK  166  A    between atoms: _398  and  _399
REMARK  167  A    between atoms: _399  and  _400
REMARK  168  A    between atoms: _402  and  _404
REMARK  169  A    between atoms: _404  and  _405
REMARK  170  A    between atoms: _404  and  _407
REMARK  171  A    between atoms: _407  and  _408
REMARK  172  A    between atoms: _411  and  _413
REMARK  173  A    between atoms: _413  and  _414
REMARK  174  A    between atoms: _416  and  _418
REMARK  175  A    between atoms: _418  and  _419
REMARK  176  A    between atoms: _421  and  _423
REMARK  177  A    between atoms: _423  and  _424
REMARK  178  A    between atoms: _423  and  _426
REMARK  179  A    between atoms: _426  and  _427
REMARK  180  A    between atoms: _430  and  _432
REMARK  181  A    between atoms: _432  and  _433
REMARK  182  A    between atoms: _435  and  _437
REMARK  183  A    between atoms: _437  and  _438
REMARK  184  A    between atoms: _440  and  _442
REMARK  185  A    between atoms: _442  and  _443
REMARK  186  A    between atoms: _442  and  _445
REMARK  187  A    between atoms: _445  and  _446
REMARK  188  A    between atoms: _452  and  _454
REMARK  189  A    between atoms: _454  and  _455
REMARK  190  A    between atoms: _454  and  _457
REMARK  191  A    between atoms: _457  and  _458
REMARK  192  A    between atoms: _461  and  _463
REMARK  193  A    between atoms: _463  and  _464
REMARK  194  A    between atoms: _463  and  _466
REMARK  195  A    between atoms: _469  and  _471
REMARK  196  A    between atoms: _471  and  _472
REMARK  197  A    between atoms: _471  and  _474
REMARK  198  A    between atoms: _474  and  _475
REMARK  199  A    between atoms: _479  and  _480
REMARK  200  A    between atoms: _485  and  _487
REMARK  201  A    between atoms: _487  and  _488
REMARK  202  A    between atoms: _487  and  _490
REMARK  203  A    between atoms: _490  and  _491
REMARK  204  A    between atoms: _495  and  _496
REMARK  205  A    between atoms: _501  and  _503
REMARK  206  A    between atoms: _503  and  _504
REMARK  207  A    between atoms: _503  and  _506
REMARK  208  A    between atoms: _509  and  _511
REMARK  209  A    between atoms: _511  and  _512
REMARK  210  A    between atoms: _511  and  _514
REMARK  211  A    between atoms: _514  and  _515
REMARK  212  A    between atoms: _520  and  _522
REMARK  213  A    between atoms: _522  and  _523
REMARK  214  A    between atoms: _522  and  _525
REMARK  215  A    between atoms: _525  and  _526
REMARK  216  A    between atoms: _529  and  _531
REMARK  217  A    between atoms: _531  and  _532
REMARK  218  A    between atoms: _531  and  _534
REMARK  219  A    between atoms: _534  and  _535
REMARK  220  A    between atoms: _538  and  _540
REMARK  221  A    between atoms: _540  and  _541
REMARK  222  A    between atoms: _543  and  _545
REMARK  223  A    between atoms: _545  and  _546
REMARK  224  A    between atoms: _545  and  _548
REMARK  225  A    between atoms: _548  and  _549
REMARK  226  A    between atoms: _549  and  _550
REMARK  227  A    between atoms: _550  and  _551
REMARK  228  A    between atoms: _560  and  _562
REMARK  229  A    between atoms: _562  and  _563
REMARK  230  A    between atoms: _562  and  _565
REMARK  231  A    between atoms: _565  and  _566
REMARK                            x       y       z     vdW  Elec       q    Type
REMARK                         _______ _______ _______ _____ _____    ______ ____
ROOT
ATOM      1  CA  LEU A   1       6.611  34.750  15.383  0.00  0.00    +0.133 C 
ENDROOT
BRANCH   1   2
ATOM      2  N   LEU A   1       6.376  33.966  16.586  0.00  0.00    -0.239 NA
ATOM      3  H   LEU A   1       7.130  33.344  16.942  0.00  0.00    +0.142 HD
ENDBRANCH   1   2
BRANCH   1   4
ATOM      4  C   LEU A   1       6.284  33.879  14.184  0.00  0.00    +0.224 C 
ATOM      5  O   LEU A   1       6.523  32.673  14.209  0.00  0.00    -0.287 OA
ENDBRANCH   1   4
BRANCH   1   6
ATOM      6  CB  LEU A   1       8.060  35.214  15.319  0.00  0.00    +0.025 C 
BRANCH   6   7
ATOM      7  CG  LEU A   1       8.615  35.814  16.615  0.00  0.00    +0.002 C 
ATOM      8  CD2 LEU A   1       7.838  37.056  17.023  0.00  0.00    +0.000 C 
ATOM      9  CD1 LEU A   1      10.077  36.129  16.429  0.00  0.00    +0.000 C 
ENDBRANCH   6   7
ENDBRANCH   1   6
TORSDOF 4
REMARK  Name = ../refined-set-2016/2q5k/2q5k_pocket.pdb
REMARK  231 active torsions:
REMARK  status: ('A' for Active; 'I' for Inactive)
REMARK    1  A    between atoms: _1  and  _3
REMARK    2  A    between atoms: _3  and  _4
REMARK    3  A    between atoms: _3  and  _6
REMARK    4  A    between atoms: _6  and  _7
REMARK    5  A    between atoms: _7  and  _8
REMARK    6  A    between atoms: _8  and  _9
REMARK    7  A    between atoms: _18  and  _20
REMARK    8  A    between atoms: _20  and  _21
REMARK    9  A    between atoms: _20  and  _23
REMARK   10  A    between atoms: _23  and  _24
REMARK   11  A    between atoms: _27  and  _29
REMARK   12  A    between atoms: _29  and  _30
REMARK   13  A    between atoms: _29  and  _32
REMARK   14  A    between atoms: _32  and  _33
REMARK   15  A    between atoms: _36  and  _38
REMARK   16  A    between atoms: _38  and  _39
REMARK   17  A    between atoms: _38  and  _41
REMARK   18  A    between atoms: _41  and  _42
REMARK   19  A    between atoms: _45  and  _47
REMARK   20  A    between atoms: _47  and  _48
REMARK   21  A    between atoms: _47  and  _50
REMARK   22  A    between atoms: _50  and  _51
REMARK   23  A    between atoms: _54  and  _56
REMARK   24  A    between atoms: _56  and  _57
REMARK   25  A    between atoms: _59  and  _61
REMARK   26  A    between atoms: _61  and  _62
REMARK   27  A    between atoms: _65  and  _67
REMARK   28  A    between atoms: _67  and  _68
REMARK   29  A    between atoms: _67  and  _70
REMARK   30  A    between atoms: _70  and  _71
REMARK   31  A    between atoms: _74  and  _76
REMARK   32  A    between atoms: _76  and  _77
REMARK   33  A    between atoms: _76  and  _79
REMARK   34  A    between atoms: _79  and  _80
REMARK   35  A    between atoms: _83  and  _85
REMARK   36  A    between atoms: _85  and  _86
REMARK   37  A    between atoms: _85  and  _88
REMARK   38  A    between atoms: _88  and  _89
REMARK   39  A    between atoms: _92  and  _94
REMARK   40  A    between atoms: _94  and  _95
REMARK   41  A    between atoms: _94  and  _97
REMARK   42  A    between atoms: _100  and  _102
REMARK   43  A    between atoms: _102  and  _103
REMARK   44  A    between atoms: _102  and  _105
REMARK   45  A    between atoms: _105  and  _106
REMARK   46  A    between atoms: _106  and  _107
REMARK   47  A    between atoms: _107  and  _108
REMARK   48  A    between atoms: _108  and  _109
REMARK   49  A    between atoms: _113  and  _115
REMARK   50  A    between atoms: _115  and  _116
REMARK   51  A    between atoms: _115  and  _118
REMARK   52  A    between atoms: _118  and  _119
REMARK   53  A    between atoms: _119  and  _120
REMARK   54  A    between atoms: _122  and  _124
REMARK   55  A    between atoms: _124  and  _125
REMARK   56  A    between atoms: _124  and  _127
REMARK   57  A    between atoms: _127  and  _128
REMARK   58  A    between atoms: _131  and  _133
REMARK   59  A    between atoms: _133  and  _134
REMARK   60  A    between atoms: _136  and  _138
REMARK   61  A    between atoms: _138  and  _139
REMARK   62  A    between atoms: _141  and  _143
REMARK   63  A    between atoms: _143  and  _144
REMARK   64  A    between atoms: _143  and  _146
REMARK   65  A    between atoms: _146  and  _147
REMARK   66  A    between atoms: _150  and  _152
REMARK   67  A    between atoms: _152  and  _153
REMARK   68  A    between atoms: _155  and  _157
REMARK   69  A    between atoms: _157  and  _158
REMARK   70  A    between atoms: _160  and  _162
REMARK   71  A    between atoms: _162  and  _163
REMARK   72  A    between atoms: _162  and  _165
REMARK   73  A    between atoms: _165  and  _166
REMARK   74  A    between atoms: _172  and  _174
REMARK   75  A    between atoms: _174  and  _175
REMARK   76  A    between atoms: _174  and  _177
REMARK   77  A    between atoms: _177  and  _178
REMARK   78  A    between atoms: _181  and  _183
REMARK   79  A    between atoms: _183  and  _184
REMARK   80  A    between atoms: _183  and  _186
REMARK   81  A    between atoms: _186  and  _187
REMARK   82  A    between atoms: _191  and  _192
REMARK   83  A    between atoms: _197  and  _199
REMARK   84  A    between atoms: _199  and  _200
REMARK   85  A    between atoms: _199  and  _202
REMARK   86  A    between atoms: _202  and  _203
REMARK   87  A    between atoms: _207  and  _208
REMARK   88  A    between atoms: _213  and  _215
REMARK   89  A    between atoms: _215  and  _216
REMARK   90  A    between atoms: _215  and  _218
REMARK   91  A    between atoms: _221  and  _223
REMARK   92  A    between atoms: _223  and  _224
REMARK   93  A    between atoms: _223  and  _226
REMARK   94  A    between atoms: _226  and  _227
REMARK   95  A    between atoms: _232  and  _234
REMARK   96  A    between atoms: _234  and  _235
REMARK   97  A    between atoms: _234  and  _237
REMARK   98  A    between atoms: _237  and  _238
REMARK   99  A    between atoms: _241  and  _243
REMARK  100  A    between atoms: _243  and  _244
REMARK  101  A    between atoms: _243  and  _246
REMARK  102  A    between atoms: _246  and  _247
REMARK  103  A    between atoms: _250  and  _252
REMARK  104  A    between atoms: _252  and  _253
REMARK  105  A    between atoms: _255  and  _257
REMARK  106  A    between atoms: _257  and  _258
REMARK  107  A    between atoms: _257  and  _260
REMARK  108  A    between atoms: _260  and  _261
REMARK  109  A    between atoms: _261  and  _262
REMARK  110  A    between atoms: _262  and  _263
REMARK  111  A    between atoms: _272  and  _274
REMARK  112  A    between atoms: _274  and  _275
REMARK  113  A    between atoms: _274  and  _277
REMARK  114  A    between atoms: _277  and  _278
REMARK  115  A    between atoms: _278  and  _279
REMARK  116  A    between atoms: _279  and  _280
REMARK  117  A    between atoms: _289  and  _291
REMARK  118  A    between atoms: _291  and  _292
REMARK  119  A    between atoms: _291  and  _294
REMARK  120  A    between atoms: _294  and  _295
REMARK  121  A    between atoms: _298  and  _300
REMARK  122  A    between atoms: _300  and  _301
REMARK  123  A    between atoms: _300  and  _303
REMARK  124  A    between atoms: _303  and  _304
REMARK  125  A    between atoms: _307  and  _309
REMARK  126  A    between atoms: _309  and  _310
REMARK  127  A    between atoms: _309  and  _312
REMARK  128  A    between atoms: _312  and  _313
REMARK  129  A    between atoms: _316  and  _318
REMARK  130  A    between atoms: _318  and  _319
REMARK  131  A    between atoms: _318  and  _321
REMARK  132  A    between atoms: _321  and  _322
REMARK  133  A    between atoms: _325  and  _327
REMARK  134  A    between atoms: _327  and  _328
REMARK  135  A    between atoms: _330  and  _332
REMARK  136  A    between atoms: _332  and  _333
REMARK  137  A    between atoms: _336  and  _338
REMARK  138  A    between atoms: _338  and  _339
REMARK  139  A    between atoms: _338  and  _341
REMARK  140  A    between atoms: _341  and  _342
REMARK  141  A    between atoms: _345  and  _347
REMARK  142  A    between atoms: _347  and  _348
REMARK  143  A    between atoms: _347  and  _350
REMARK  144  A    between atoms: _350  and  _351
REMARK  145  A    between atoms: _354  and  _356
REMARK  146  A    between atoms: _356  and  _357
REMARK  147  A    between atoms: _356  and  _359
REMARK  148  A    between atoms: _359  and  _360
REMARK  149  A    between atoms: _363  and  _365
REMARK  150  A    between atoms: _365  and  _366
REMARK  151  A    between atoms: _365  and  _368
REMARK  152  A    between atoms: _371  and  _373
REMARK  153  A    between atoms: _373  and  _374
REMARK  154  A    between atoms: _373  and  _376
REMARK  155  A    between atoms: _376  and  _377
REMARK  156  A    between atoms: _380  and  _382
REMARK  157  A    between atoms: _382  and  _383
REMARK  158  A    between atoms: _382  and  _385
REMARK  159  A    between atoms: _385  and  _386
REMARK  160  A    between atoms: _386  and  _387
REMARK  161  A    between atoms: _387  and  _388
REMARK  162  A    between atoms: _388  and  _389
REMARK  163  A    between atoms: _393  and  _395
REMARK  164  A    between atoms: _395  and  _396
REMARK  165  A    between atoms: _395  and  _398
REMARK  166  A    between atoms: _398  and  _399
REMARK  167  A    between atoms: _399  and  _400
REMARK  168  A    between atoms: _402  and  _404
REMARK  169  A    between atoms: _404  and  _405
REMARK  170  A    between atoms: _404  and  _407
REMARK  171  A    between atoms: _407  and  _408
REMARK  172  A    between atoms: _411  and  _413
REMARK  173  A    between atoms: _413  and  _414
REMARK  174  A    between atoms: _416  and  _418
REMARK  175  A    between atoms: _418  and  _419
REMARK  176  A    between atoms: _421  and  _423
REMARK  177  A    between atoms: _423  and  _424
REMARK  178  A    between atoms: _423  and  _426
REMARK  179  A    between atoms: _426  and  _427
REMARK  180  A    between atoms: _430  and  _432
REMARK  181  A    between atoms: _432  and  _433
REMARK  182  A    between atoms: _435  and  _437
REMARK  183  A    between atoms: _437  and  _438
REMARK  184  A    between atoms: _440  and  _442
REMARK  185  A    between atoms: _442  and  _443
REMARK  186  A    between atoms: _442  and  _445
REMARK  187  A    between atoms: _445  and  _446
REMARK  188  A    between atoms: _452  and  _454
REMARK  189  A    between atoms: _454  and  _455
REMARK  190  A    between atoms: _454  and  _457
REMARK  191  A    between atoms: _457  and  _458
REMARK  192  A    between atoms: _461  and  _463
REMARK  193  A    between atoms: _463  and  _464
REMARK  194  A    between atoms: _463  and  _466
REMARK  195  A    between atoms: _469  and  _471
REMARK  196  A    between atoms: _471  and  _472
REMARK  197  A    between atoms: _471  and  _474
REMARK  198  A    between atoms: _474  and  _475
REMARK  199  A    between atoms: _479  and  _480
REMARK  200  A    between atoms: _485  and  _487
REMARK  201  A    between atoms: _487  and  _488
REMARK  202  A    between atoms: _487  and  _490
REMARK  203  A    between atoms: _490  and  _491
REMARK  204  A    between atoms: _495  and  _496
REMARK  205  A    between atoms: _501  and  _503
REMARK  206  A    between atoms: _503  and  _504
REMARK  207  A    between atoms: _503  and  _506
REMARK  208  A    between atoms: _509  and  _511
REMARK  209  A    between atoms: _511  and  _512
REMARK  210  A    between atoms: _511  and  _514
REMARK  211  A    between atoms: _514  and  _515
REMARK  212  A    between atoms: _520  and  _522
REMARK  213  A    between atoms: _522  and  _523
REMARK  214  A    between atoms: _522  and  _525
REMARK  215  A    between atoms: _525  and  _526
REMARK  216  A    between atoms: _529  and  _531
REMARK  217  A    between atoms: _531  and  _532
REMARK  218  A    between atoms: _531  and  _534
REMARK  219  A    between atoms: _534  and  _535
REMARK  220  A    between atoms: _538  and  _540
REMARK  221  A    between atoms: _540  and  _541
REMARK  222  A    between atoms: _543  and  _545
REMARK  223  A    between atoms: _545  and  _546
REMARK  224  A    between atoms: _545  and  _548
REMARK  225  A    between atoms: _548  and  _549
REMARK  226  A    between atoms: _549  and  _550
REMARK  227  A    between atoms: _550  and  _551
REMARK  228  A    between atoms: _560  and  _562
REMARK  229  A    between atoms: _562  and  _563
REMARK  230  A    between atoms: _562  and  _565
REMARK  231  A    between atoms: _565  and  _566
REMARK                            x       y       z     vdW  Elec       q    Type
REMARK                         _______ _______ _______ _____ _____    ______ ____
ROOT
ATOM      1  CA  ILE A   6      12.239  27.034  15.517  0.00  0.00    +0.149 C 
ENDROOT
BRANCH   1   3
ATOM      2  C   ASN A   5      11.304  25.818  13.614  0.00  0.00    +0.241 C 
ATOM      3  N   ILE A   6      11.296  26.880  14.412  0.00  0.00    -0.297 N 
ATOM      4  H   ILE A   6      10.594  27.628  14.244  0.00  0.00    +0.150 HD
ATOM      5  O   ASN A   5      11.985  24.825  13.834  0.00  0.00    -0.273 OA
BRANCH   2   6
ATOM      6  CA  ASN A   5      10.420  25.900  12.358  0.00  0.00    +0.158 C 
BRANCH   6   9
ATOM      7  C   VAL A   4      12.214  26.146  10.706  0.00  0.00    +0.241 C 
ATOM      8  O   VAL A   4      12.567  27.225  11.182  0.00  0.00    -0.273 OA
ATOM      9  N   ASN A   5      11.168  25.460  11.165  0.00  0.00    -0.297 N 
ATOM     10  H   ASN A   5      10.872  24.594  10.671  0.00  0.00    +0.150 HD
BRANCH   7  11
ATOM     11  CA  VAL A   4      13.006  25.524   9.554  0.00  0.00    +0.149 C 
BRANCH  11  13
ATOM     12  C   PRO A   3      13.121  26.395   7.254  0.00  0.00    +0.241 C 
ATOM     13  N   VAL A   4      13.264  26.570   8.566  0.00  0.00    -0.297 N 
ATOM     14  H   VAL A   4      13.576  27.502   8.907  0.00  0.00    +0.150 HD
ATOM     15  O   PRO A   3      12.766  25.334   6.748  0.00  0.00    -0.273 OA
BRANCH  12  22
ATOM     16  C   THR A   2      12.077  29.279   7.473  0.00  0.00    +0.246 C 
ATOM     17  O   THR A   2      11.064  28.616   7.229  0.00  0.00    -0.273 OA
ATOM     18  N   PRO A   3      13.301  28.902   7.050  0.00  0.00    -0.272 N 
ATOM     19  CD  PRO A   3      14.599  29.595   7.143  0.00  0.00    +0.094 C 
ATOM     20  CG  PRO A   3      15.345  29.030   5.969  0.00  0.00    +0.024 C 
ATOM     21  CB  PRO A   3      14.915  27.592   5.931  0.00  0.00    +0.031 C 
ATOM     22  CA  PRO A   3      13.438  27.608   6.366  0.00  0.00    +0.152 C 
BRANCH  16  23
ATOM     23  CA  THR A   2      11.966  30.597   8.245  0.00  0.00    +0.176 C 
BRANCH  23  25
ATOM     24  C   PRO A   1      10.946  32.059   6.586  0.00  0.00    +0.239 C 
ATOM     25  N   THR A   2      10.837  31.341   7.697  0.00  0.00    -0.295 N 
ATOM     26  H   THR A   2       9.922  31.308   8.190  0.00  0.00    +0.150 HD
ATOM     27  O   PRO A   1      12.003  32.205   5.988  0.00  0.00    -0.274 OA
BRANCH  24  32
ATOM     28  N   PRO A   1       9.018  33.619   7.004  0.00  0.00    -0.210 NA
ATOM     29  CD  PRO A   1       9.259  35.040   6.655  0.00  0.00    +0.089 C 
ATOM     30  CG  PRO A   1      10.157  34.971   5.435  0.00  0.00    +0.021 C 
ATOM     31  CB  PRO A   1       9.930  33.600   4.850  0.00  0.00    +0.028 C 
ATOM     32  CA  PRO A   1       9.657  32.704   6.061  0.00  0.00    +0.149 C 
ENDBRANCH  24  32
ENDBRANCH  23  25
BRANCH  23  33
ATOM     33  CB  THR A   2      11.831  30.373   9.786  0.00  0.00    +0.137 C 
ATOM     34  CG2 THR A   2      10.545  29.612  10.146  0.00  0.00    +0.034 C 
BRANCH  33  35
ATOM     35  OG1 THR A   2      12.984  29.674  10.289  0.00  0.00    -0.382 OA
ATOM     36  HG1 THR A   2      13.059  28.796   9.838  0.00  0.00    +0.210 HD
ENDBRANCH  33  35
ENDBRANCH  23  33
ENDBRANCH  16  23
ENDBRANCH  12  22
ENDBRANCH  11  13
BRANCH  11  37
ATOM     37  CB  VAL A   4      14.332  24.958  10.131  0.00  0.00    +0.027 C 
ATOM     38  CG2 VAL A   4      14.057  23.833  11.126  0.00  0.00    +0.002 C 
ATOM     39  CG1 VAL A   4      15.253  24.483   9.010  0.00  0.00    +0.002 C 
ENDBRANCH  11  37
ENDBRANCH   7  11
ENDBRANCH   6   9
BRANCH   6  40
ATOM     40  CB  ASN A   5       9.163  25.055  12.545  0.00  0.00    +0.114 C 
BRANCH  40  41
ATOM     41  CG  ASN A   5       8.195  25.184  11.378  0.00  0.00    +0.222 C 
ATOM     42  OD1 ASN A   5       7.845  26.286  10.992  0.00  0.00    -0.275 OA
ATOM     43  ND2 ASN A   5       7.762  24.054  10.819  0.00  0.00    -0.329 N 
ATOM     44 HD21 ASN A   5       8.088  23.136  11.182  0.00  0.00    +0.145 HD
ATOM     45 HD22 ASN A   5       7.098  24.091  10.019  0.00  0.00    +0.145 HD
ENDBRANCH  40  41
ENDBRANCH   6  40
ENDBRANCH   2   6
ENDBRANCH   1   3
BRANCH   1  46
ATOM     46  C   ILE A   6      11.496  27.326  16.804  0.00  0.00    +0.241 C 
ATOM     47  N   ILE A   7      11.788  26.530  17.835  0.00  0.00    -0.297 N 
ATOM     48  H   ILE A   7      12.332  25.662  17.657  0.00  0.00    +0.150 HD
ATOM     49  O   ILE A   6      10.671  28.251  16.852  0.00  0.00    -0.273 OA
BRANCH  47  50
ATOM     50  CA  ILE A   7      11.372  26.831  19.206  0.00  0.00    +0.149 C 
BRANCH  50  51
ATOM     51  C   ILE A   7      12.540  27.494  19.930  0.00  0.00    +0.241 C 
ATOM     52  N   GLY A   8      12.365  28.766  20.281  0.00  0.00    -0.295 N 
ATOM     53  H   GLY A   8      11.440  29.213  20.115  0.00  0.00    +0.150 HD
ATOM     54  O   ILE A   7      13.574  26.862  20.160  0.00  0.00    -0.273 OA
BRANCH  52  55
ATOM     55  CA  GLY A   8      13.438  29.557  20.895  0.00  0.00    +0.176 C 
BRANCH  55  56
ATOM     56  C   GLY A   8      13.383  29.634  22.402  0.00  0.00    +0.243 C 
ATOM     57  O   GLY A   8      12.493  29.039  23.029  0.00  0.00    -0.273 OA
ATOM     58  N   ARG A   9      14.317  30.389  22.986  0.00  0.00    -0.297 N 
ATOM     59  H   ARG A   9      14.967  30.938  22.388  0.00  0.00    +0.150 HD
BRANCH  58  60
ATOM     60  CA  ARG A   9      14.457  30.469  24.452  0.00  0.00    +0.149 C 
BRANCH  60  61
ATOM     61  C   ARG A   9      13.206  30.924  25.196  0.00  0.00    +0.241 C 
ATOM     62  O   ARG A   9      12.965  30.477  26.322  0.00  0.00    -0.273 OA
ATOM     63  N   ASN A  10      12.416  31.809  24.581  0.00  0.00    -0.298 N 
ATOM     64  H   ASN A  10      12.670  32.144  23.629  0.00  0.00    +0.150 HD
BRANCH  63  65
ATOM     65  CA  ASN A  10      11.208  32.314  25.216  0.00  0.00    +0.146 C 
BRANCH  65  66
ATOM     66  C   ASN A  10      10.242  31.197  25.604  0.00  0.00    +0.227 C 
ATOM     67  O   ASN A  10       9.495  31.338  26.566  0.00  0.00    -0.286 OA
ENDBRANCH  65  66
BRANCH  65  68
ATOM     68  CB  ASN A  10      10.499  33.350  24.328  0.00  0.00    +0.112 C 
BRANCH  68  69
ATOM     69  CG  ASN A  10       9.797  32.723  23.137  0.00  0.00    +0.222 C 
ATOM     70  ND2 ASN A  10       8.497  32.970  23.027  0.00  0.00    -0.329 N 
ATOM     71 HD21 ASN A  10       8.019  33.565  23.734  0.00  0.00    +0.145 HD
ATOM     72 HD22 ASN A  10       7.957  32.569  22.234  0.00  0.00    +0.145 HD
ATOM     73  OD1 ASN A  10      10.415  32.023  22.325  0.00  0.00    -0.275 OA
ENDBRANCH  68  69
ENDBRANCH  65  68
ENDBRANCH  63  65
ENDBRANCH  60  61
BRANCH  60  74
ATOM     74  CB  ARG A   9      15.639  31.360  24.847  0.00  0.00    +0.033 C 
BRANCH  74  75
ATOM     75  CG  ARG A   9      16.985  30.765  24.468  0.00  0.00    +0.045 C 
BRANCH  75  76
ATOM     76  CD  ARG A   9      18.169  31.594  24.976  0.00  0.00    +0.174 C 
BRANCH  76  77
ATOM     77  NE  ARG A   9      18.213  32.953  24.422  0.00  0.00    -0.265 N 
ATOM     78  CZ  ARG A   9      17.824  34.062  25.048  0.00  0.00    +0.342 C 
ATOM     79  NH2 ARG A   9      17.336  34.033  26.280  0.00  0.00    -0.292 N 
ATOM     80 HH21 ARG A   9      17.249  33.127  26.784  0.00  0.00    +0.255 HD
ATOM     81 HH22 ARG A   9      17.040  34.916  26.743  0.00  0.00    +0.255 HD
ATOM     82  NH1 ARG A   9      17.933  35.227  24.427  0.00  0.00    -0.292 N 
ATOM     83 HH11 ARG A   9      17.633  36.101  24.904  0.00  0.00    +0.255 HD
ATOM     84 HH12 ARG A   9      18.319  35.268  23.462  0.00  0.00    +0.255 HD
ATOM     85  HE  ARG A   9      18.581  33.059  23.455  0.00  0.00    +0.259 HD
ENDBRANCH  76  77
ENDBRANCH  75  76
ENDBRANCH  74  75
ENDBRANCH  60  74
ENDBRANCH  58  60
ENDBRANCH  55  56
ENDBRANCH  52  55
ENDBRANCH  50  51
BRANCH  50  86
ATOM     86  CB  ILE A   7      10.959  25.568  19.997  0.00  0.00    +0.027 C 
ATOM     87  CG2 ILE A   7      10.530  25.945  21.419  0.00  0.00    +0.002 C 
BRANCH  86  88
ATOM     88  CG1 ILE A   7       9.844  24.797  19.275  0.00  0.00    +0.002 C 
ATOM     89  CD1 ILE A   7       8.663  25.608  18.903  0.00  0.00    +0.000 C 
ENDBRANCH  86  88
ENDBRANCH  50  86
ENDBRANCH  47  50
ENDBRANCH   1  46
BRANCH   1  90
ATOM     90  CB  ILE A   6      13.230  28.185  15.238  0.00  0.00    +0.027 C 
ATOM     91  CG2 ILE A   6      13.944  28.627  16.537  0.00  0.00    +0.002 C 
BRANCH  90  92
ATOM     92  CG1 ILE A   6      14.234  27.761  14.164  0.00  0.00    +0.002 C 
ATOM     93  CD1 ILE A   6      15.018  28.908  13.553  0.00  0.00    +0.000 C 
ENDBRANCH  90  92
ENDBRANCH   1  90
TORSDOF 33
REMARK  Name = ../refined-set-2016/2q5k/2q5k_pocket.pdb
REMARK  231 active torsions:
REMARK  status: ('A' for Active; 'I' for Inactive)
REMARK    1  A    between atoms: _1  and  _3
REMARK    2  A    between atoms: _3  and  _4
REMARK    3  A    between atoms: _3  and  _6
REMARK    4  A    between atoms: _6  and  _7
REMARK    5  A    between atoms: _7  and  _8
REMARK    6  A    between atoms: _8  and  _9
REMARK    7  A    between atoms: _18  and  _20
REMARK    8  A    between atoms: _20  and  _21
REMARK    9  A    between atoms: _20  and  _23
REMARK   10  A    between atoms: _23  and  _24
REMARK   11  A    between atoms: _27  and  _29
REMARK   12  A    between atoms: _29  and  _30
REMARK   13  A    between atoms: _29  and  _32
REMARK   14  A    between atoms: _32  and  _33
REMARK   15  A    between atoms: _36  and  _38
REMARK   16  A    between atoms: _38  and  _39
REMARK   17  A    between atoms: _38  and  _41
REMARK   18  A    between atoms: _41  and  _42
REMARK   19  A    between atoms: _45  and  _47
REMARK   20  A    between atoms: _47  and  _48
REMARK   21  A    between atoms: _47  and  _50
REMARK   22  A    between atoms: _50  and  _51
REMARK   23  A    between atoms: _54  and  _56
REMARK   24  A    between atoms: _56  and  _57
REMARK   25  A    between atoms: _59  and  _61
REMARK   26  A    between atoms: _61  and  _62
REMARK   27  A    between atoms: _65  and  _67
REMARK   28  A    between atoms: _67  and  _68
REMARK   29  A    between atoms: _67  and  _70
REMARK   30  A    between atoms: _70  and  _71
REMARK   31  A    between atoms: _74  and  _76
REMARK   32  A    between atoms: _76  and  _77
REMARK   33  A    between atoms: _76  and  _79
REMARK   34  A    between atoms: _79  and  _80
REMARK   35  A    between atoms: _83  and  _85
REMARK   36  A    between atoms: _85  and  _86
REMARK   37  A    between atoms: _85  and  _88
REMARK   38  A    between atoms: _88  and  _89
REMARK   39  A    between atoms: _92  and  _94
REMARK   40  A    between atoms: _94  and  _95
REMARK   41  A    between atoms: _94  and  _97
REMARK   42  A    between atoms: _100  and  _102
REMARK   43  A    between atoms: _102  and  _103
REMARK   44  A    between atoms: _102  and  _105
REMARK   45  A    between atoms: _105  and  _106
REMARK   46  A    between atoms: _106  and  _107
REMARK   47  A    between atoms: _107  and  _108
REMARK   48  A    between atoms: _108  and  _109
REMARK   49  A    between atoms: _113  and  _115
REMARK   50  A    between atoms: _115  and  _116
REMARK   51  A    between atoms: _115  and  _118
REMARK   52  A    between atoms: _118  and  _119
REMARK   53  A    between atoms: _119  and  _120
REMARK   54  A    between atoms: _122  and  _124
REMARK   55  A    between atoms: _124  and  _125
REMARK   56  A    between atoms: _124  and  _127
REMARK   57  A    between atoms: _127  and  _128
REMARK   58  A    between atoms: _131  and  _133
REMARK   59  A    between atoms: _133  and  _134
REMARK   60  A    between atoms: _136  and  _138
REMARK   61  A    between atoms: _138  and  _139
REMARK   62  A    between atoms: _141  and  _143
REMARK   63  A    between atoms: _143  and  _144
REMARK   64  A    between atoms: _143  and  _146
REMARK   65  A    between atoms: _146  and  _147
REMARK   66  A    between atoms: _150  and  _152
REMARK   67  A    between atoms: _152  and  _153
REMARK   68  A    between atoms: _155  and  _157
REMARK   69  A    between atoms: _157  and  _158
REMARK   70  A    between atoms: _160  and  _162
REMARK   71  A    between atoms: _162  and  _163
REMARK   72  A    between atoms: _162  and  _165
REMARK   73  A    between atoms: _165  and  _166
REMARK   74  A    between atoms: _172  and  _174
REMARK   75  A    between atoms: _174  and  _175
REMARK   76  A    between atoms: _174  and  _177
REMARK   77  A    between atoms: _177  and  _178
REMARK   78  A    between atoms: _181  and  _183
REMARK   79  A    between atoms: _183  and  _184
REMARK   80  A    between atoms: _183  and  _186
REMARK   81  A    between atoms: _186  and  _187
REMARK   82  A    between atoms: _191  and  _192
REMARK   83  A    between atoms: _197  and  _199
REMARK   84  A    between atoms: _199  and  _200
REMARK   85  A    between atoms: _199  and  _202
REMARK   86  A    between atoms: _202  and  _203
REMARK   87  A    between atoms: _207  and  _208
REMARK   88  A    between atoms: _213  and  _215
REMARK   89  A    between atoms: _215  and  _216
REMARK   90  A    between atoms: _215  and  _218
REMARK   91  A    between atoms: _221  and  _223
REMARK   92  A    between atoms: _223  and  _224
REMARK   93  A    between atoms: _223  and  _226
REMARK   94  A    between atoms: _226  and  _227
REMARK   95  A    between atoms: _232  and  _234
REMARK   96  A    between atoms: _234  and  _235
REMARK   97  A    between atoms: _234  and  _237
REMARK   98  A    between atoms: _237  and  _238
REMARK   99  A    between atoms: _241  and  _243
REMARK  100  A    between atoms: _243  and  _244
REMARK  101  A    between atoms: _243  and  _246
REMARK  102  A    between atoms: _246  and  _247
REMARK  103  A    between atoms: _250  and  _252
REMARK  104  A    between atoms: _252  and  _253
REMARK  105  A    between atoms: _255  and  _257
REMARK  106  A    between atoms: _257  and  _258
REMARK  107  A    between atoms: _257  and  _260
REMARK  108  A    between atoms: _260  and  _261
REMARK  109  A    between atoms: _261  and  _262
REMARK  110  A    between atoms: _262  and  _263
REMARK  111  A    between atoms: _272  and  _274
REMARK  112  A    between atoms: _274  and  _275
REMARK  113  A    between atoms: _274  and  _277
REMARK  114  A    between atoms: _277  and  _278
REMARK  115  A    between atoms: _278  and  _279
REMARK  116  A    between atoms: _279  and  _280
REMARK  117  A    between atoms: _289  and  _291
REMARK  118  A    between atoms: _291  and  _292
REMARK  119  A    between atoms: _291  and  _294
REMARK  120  A    between atoms: _294  and  _295
REMARK  121  A    between atoms: _298  and  _300
REMARK  122  A    between atoms: _300  and  _301
REMARK  123  A    between atoms: _300  and  _303
REMARK  124  A    between atoms: _303  and  _304
REMARK  125  A    between atoms: _307  and  _309
REMARK  126  A    between atoms: _309  and  _310
REMARK  127  A    between atoms: _309  and  _312
REMARK  128  A    between atoms: _312  and  _313
REMARK  129  A    between atoms: _316  and  _318
REMARK  130  A    between atoms: _318  and  _319
REMARK  131  A    between atoms: _318  and  _321
REMARK  132  A    between atoms: _321  and  _322
REMARK  133  A    between atoms: _325  and  _327
REMARK  134  A    between atoms: _327  and  _328
REMARK  135  A    between atoms: _330  and  _332
REMARK  136  A    between atoms: _332  and  _333
REMARK  137  A    between atoms: _336  and  _338
REMARK  138  A    between atoms: _338  and  _339
REMARK  139  A    between atoms: _338  and  _341
REMARK  140  A    between atoms: _341  and  _342
REMARK  141  A    between atoms: _345  and  _347
REMARK  142  A    between atoms: _347  and  _348
REMARK  143  A    between atoms: _347  and  _350
REMARK  144  A    between atoms: _350  and  _351
REMARK  145  A    between atoms: _354  and  _356
REMARK  146  A    between atoms: _356  and  _357
REMARK  147  A    between atoms: _356  and  _359
REMARK  148  A    between atoms: _359  and  _360
REMARK  149  A    between atoms: _363  and  _365
REMARK  150  A    between atoms: _365  and  _366
REMARK  151  A    between atoms: _365  and  _368
REMARK  152  A    between atoms: _371  and  _373
REMARK  153  A    between atoms: _373  and  _374
REMARK  154  A    between atoms: _373  and  _376
REMARK  155  A    between atoms: _376  and  _377
REMARK  156  A    between atoms: _380  and  _382
REMARK  157  A    between atoms: _382  and  _383
REMARK  158  A    between atoms: _382  and  _385
REMARK  159  A    between atoms: _385  and  _386
REMARK  160  A    between atoms: _386  and  _387
REMARK  161  A    between atoms: _387  and  _388
REMARK  162  A    between atoms: _388  and  _389
REMARK  163  A    between atoms: _393  and  _395
REMARK  164  A    between atoms: _395  and  _396
REMARK  165  A    between atoms: _395  and  _398
REMARK  166  A    between atoms: _398  and  _399
REMARK  167  A    between atoms: _399  and  _400
REMARK  168  A    between atoms: _402  and  _404
REMARK  169  A    between atoms: _404  and  _405
REMARK  170  A    between atoms: _404  and  _407
REMARK  171  A    between atoms: _407  and  _408
REMARK  172  A    between atoms: _411  and  _413
REMARK  173  A    between atoms: _413  and  _414
REMARK  174  A    between atoms: _416  and  _418
REMARK  175  A    between atoms: _418  and  _419
REMARK  176  A    between atoms: _421  and  _423
REMARK  177  A    between atoms: _423  and  _424
REMARK  178  A    between atoms: _423  and  _426
REMARK  179  A    between atoms: _426  and  _427
REMARK  180  A    between atoms: _430  and  _432
REMARK  181  A    between atoms: _432  and  _433
REMARK  182  A    between atoms: _435  and  _437
REMARK  183  A    between atoms: _437  and  _438
REMARK  184  A    between atoms: _440  and  _442
REMARK  185  A    between atoms: _442  and  _443
REMARK  186  A    between atoms: _442  and  _445
REMARK  187  A    between atoms: _445  and  _446
REMARK  188  A    between atoms: _452  and  _454
REMARK  189  A    between atoms: _454  and  _455
REMARK  190  A    between atoms: _454  and  _457
REMARK  191  A    between atoms: _457  and  _458
REMARK  192  A    between atoms: _461  and  _463
REMARK  193  A    between atoms: _463  and  _464
REMARK  194  A    between atoms: _463  and  _466
REMARK  195  A    between atoms: _469  and  _471
REMARK  196  A    between atoms: _471  and  _472
REMARK  197  A    between atoms: _471  and  _474
REMARK  198  A    between atoms: _474  and  _475
REMARK  199  A    between atoms: _479  and  _480
REMARK  200  A    between atoms: _485  and  _487
REMARK  201  A    between atoms: _487  and  _488
REMARK  202  A    between atoms: _487  and  _490
REMARK  203  A    between atoms: _490  and  _491
REMARK  204  A    between atoms: _495  and  _496
REMARK  205  A    between atoms: _501  and  _503
REMARK  206  A    between atoms: _503  and  _504
REMARK  207  A    between atoms: _503  and  _506
REMARK  208  A    between atoms: _509  and  _511
REMARK  209  A    between atoms: _511  and  _512
REMARK  210  A    between atoms: _511  and  _514
REMARK  211  A    between atoms: _514  and  _515
REMARK  212  A    between atoms: _520  and  _522
REMARK  213  A    between atoms: _522  and  _523
REMARK  214  A    between atoms: _522  and  _525
REMARK  215  A    between atoms: _525  and  _526
REMARK  216  A    between atoms: _529  and  _531
REMARK  217  A    between atoms: _531  and  _532
REMARK  218  A    between atoms: _531  and  _534
REMARK  219  A    between atoms: _534  and  _535
REMARK  220  A    between atoms: _538  and  _540
REMARK  221  A    between atoms: _540  and  _541
REMARK  222  A    between atoms: _543  and  _545
REMARK  223  A    between atoms: _545  and  _546
REMARK  224  A    between atoms: _545  and  _548
REMARK  225  A    between atoms: _548  and  _549
REMARK  226  A    between atoms: _549  and  _550
REMARK  227  A    between atoms: _550  and  _551
REMARK  228  A    between atoms: _560  and  _562
REMARK  229  A    between atoms: _562  and  _563
REMARK  230  A    between atoms: _562  and  _565
REMARK  231  A    between atoms: _565  and  _566
REMARK                            x       y       z     vdW  Elec       q    Type
REMARK                         _______ _______ _______ _____ _____    ______ ____
ROOT
ATOM      1  O   HOH     1      26.659  18.457  13.203  0.00  0.00    +0.000 OA
ENDROOT
TORSDOF 0
REMARK  Name = ../refined-set-2016/2q5k/2q5k_pocket.pdb
REMARK  231 active torsions:
REMARK  status: ('A' for Active; 'I' for Inactive)
REMARK    1  A    between atoms: _1  and  _3
REMARK    2  A    between atoms: _3  and  _4
REMARK    3  A    between atoms: _3  and  _6
REMARK    4  A    between atoms: _6  and  _7
REMARK    5  A    between atoms: _7  and  _8
REMARK    6  A    between atoms: _8  and  _9
REMARK    7  A    between atoms: _18  and  _20
REMARK    8  A    between atoms: _20  and  _21
REMARK    9  A    between atoms: _20  and  _23
REMARK   10  A    between atoms: _23  and  _24
REMARK   11  A    between atoms: _27  and  _29
REMARK   12  A    between atoms: _29  and  _30
REMARK   13  A    between atoms: _29  and  _32
REMARK   14  A    between atoms: _32  and  _33
REMARK   15  A    between atoms: _36  and  _38
REMARK   16  A    between atoms: _38  and  _39
REMARK   17  A    between atoms: _38  and  _41
REMARK   18  A    between atoms: _41  and  _42
REMARK   19  A    between atoms: _45  and  _47
REMARK   20  A    between atoms: _47  and  _48
REMARK   21  A    between atoms: _47  and  _50
REMARK   22  A    between atoms: _50  and  _51
REMARK   23  A    between atoms: _54  and  _56
REMARK   24  A    between atoms: _56  and  _57
REMARK   25  A    between atoms: _59  and  _61
REMARK   26  A    between atoms: _61  and  _62
REMARK   27  A    between atoms: _65  and  _67
REMARK   28  A    between atoms: _67  and  _68
REMARK   29  A    between atoms: _67  and  _70
REMARK   30  A    between atoms: _70  and  _71
REMARK   31  A    between atoms: _74  and  _76
REMARK   32  A    between atoms: _76  and  _77
REMARK   33  A    between atoms: _76  and  _79
REMARK   34  A    between atoms: _79  and  _80
REMARK   35  A    between atoms: _83  and  _85
REMARK   36  A    between atoms: _85  and  _86
REMARK   37  A    between atoms: _85  and  _88
REMARK   38  A    between atoms: _88  and  _89
REMARK   39  A    between atoms: _92  and  _94
REMARK   40  A    between atoms: _94  and  _95
REMARK   41  A    between atoms: _94  and  _97
REMARK   42  A    between atoms: _100  and  _102
REMARK   43  A    between atoms: _102  and  _103
REMARK   44  A    between atoms: _102  and  _105
REMARK   45  A    between atoms: _105  and  _106
REMARK   46  A    between atoms: _106  and  _107
REMARK   47  A    between atoms: _107  and  _108
REMARK   48  A    between atoms: _108  and  _109
REMARK   49  A    between atoms: _113  and  _115
REMARK   50  A    between atoms: _115  and  _116
REMARK   51  A    between atoms: _115  and  _118
REMARK   52  A    between atoms: _118  and  _119
REMARK   53  A    between atoms: _119  and  _120
REMARK   54  A    between atoms: _122  and  _124
REMARK   55  A    between atoms: _124  and  _125
REMARK   56  A    between atoms: _124  and  _127
REMARK   57  A    between atoms: _127  and  _128
REMARK   58  A    between atoms: _131  and  _133
REMARK   59  A    between atoms: _133  and  _134
REMARK   60  A    between atoms: _136  and  _138
REMARK   61  A    between atoms: _138  and  _139
REMARK   62  A    between atoms: _141  and  _143
REMARK   63  A    between atoms: _143  and  _144
REMARK   64  A    between atoms: _143  and  _146
REMARK   65  A    between atoms: _146  and  _147
REMARK   66  A    between atoms: _150  and  _152
REMARK   67  A    between atoms: _152  and  _153
REMARK   68  A    between atoms: _155  and  _157
REMARK   69  A    between atoms: _157  and  _158
REMARK   70  A    between atoms: _160  and  _162
REMARK   71  A    between atoms: _162  and  _163
REMARK   72  A    between atoms: _162  and  _165
REMARK   73  A    between atoms: _165  and  _166
REMARK   74  A    between atoms: _172  and  _174
REMARK   75  A    between atoms: _174  and  _175
REMARK   76  A    between atoms: _174  and  _177
REMARK   77  A    between atoms: _177  and  _178
REMARK   78  A    between atoms: _181  and  _183
REMARK   79  A    between atoms: _183  and  _184
REMARK   80  A    between atoms: _183  and  _186
REMARK   81  A    between atoms: _186  and  _187
REMARK   82  A    between atoms: _191  and  _192
REMARK   83  A    between atoms: _197  and  _199
REMARK   84  A    between atoms: _199  and  _200
REMARK   85  A    between atoms: _199  and  _202
REMARK   86  A    between atoms: _202  and  _203
REMARK   87  A    between atoms: _207  and  _208
REMARK   88  A    between atoms: _213  and  _215
REMARK   89  A    between atoms: _215  and  _216
REMARK   90  A    between atoms: _215  and  _218
REMARK   91  A    between atoms: _221  and  _223
REMARK   92  A    between atoms: _223  and  _224
REMARK   93  A    between atoms: _223  and  _226
REMARK   94  A    between atoms: _226  and  _227
REMARK   95  A    between atoms: _232  and  _234
REMARK   96  A    between atoms: _234  and  _235
REMARK   97  A    between atoms: _234  and  _237
REMARK   98  A    between atoms: _237  and  _238
REMARK   99  A    between atoms: _241  and  _243
REMARK  100  A    between atoms: _243  and  _244
REMARK  101  A    between atoms: _243  and  _246
REMARK  102  A    between atoms: _246  and  _247
REMARK  103  A    between atoms: _250  and  _252
REMARK  104  A    between atoms: _252  and  _253
REMARK  105  A    between atoms: _255  and  _257
REMARK  106  A    between atoms: _257  and  _258
REMARK  107  A    between atoms: _257  and  _260
REMARK  108  A    between atoms: _260  and  _261
REMARK  109  A    between atoms: _261  and  _262
REMARK  110  A    between atoms: _262  and  _263
REMARK  111  A    between atoms: _272  and  _274
REMARK  112  A    between atoms: _274  and  _275
REMARK  113  A    between atoms: _274  and  _277
REMARK  114  A    between atoms: _277  and  _278
REMARK  115  A    between atoms: _278  and  _279
REMARK  116  A    between atoms: _279  and  _280
REMARK  117  A    between atoms: _289  and  _291
REMARK  118  A    between atoms: _291  and  _292
REMARK  119  A    between atoms: _291  and  _294
REMARK  120  A    between atoms: _294  and  _295
REMARK  121  A    between atoms: _298  and  _300
REMARK  122  A    between atoms: _300  and  _301
REMARK  123  A    between atoms: _300  and  _303
REMARK  124  A    between atoms: _303  and  _304
REMARK  125  A    between atoms: _307  and  _309
REMARK  126  A    between atoms: _309  and  _310
REMARK  127  A    between atoms: _309  and  _312
REMARK  128  A    between atoms: _312  and  _313
REMARK  129  A    between atoms: _316  and  _318
REMARK  130  A    between atoms: _318  and  _319
REMARK  131  A    between atoms: _318  and  _321
REMARK  132  A    between atoms: _321  and  _322
REMARK  133  A    between atoms: _325  and  _327
REMARK  134  A    between atoms: _327  and  _328
REMARK  135  A    between atoms: _330  and  _332
REMARK  136  A    between atoms: _332  and  _333
REMARK  137  A    between atoms: _336  and  _338
REMARK  138  A    between atoms: _338  and  _339
REMARK  139  A    between atoms: _338  and  _341
REMARK  140  A    between atoms: _341  and  _342
REMARK  141  A    between atoms: _345  and  _347
REMARK  142  A    between atoms: _347  and  _348
REMARK  143  A    between atoms: _347  and  _350
REMARK  144  A    between atoms: _350  and  _351
REMARK  145  A    between atoms: _354  and  _356
REMARK  146  A    between atoms: _356  and  _357
REMARK  147  A    between atoms: _356  and  _359
REMARK  148  A    between atoms: _359  and  _360
REMARK  149  A    between atoms: _363  and  _365
REMARK  150  A    between atoms: _365  and  _366
REMARK  151  A    between atoms: _365  and  _368
REMARK  152  A    between atoms: _371  and  _373
REMARK  153  A    between atoms: _373  and  _374
REMARK  154  A    between atoms: _373  and  _376
REMARK  155  A    between atoms: _376  and  _377
REMARK  156  A    between atoms: _380  and  _382
REMARK  157  A    between atoms: _382  and  _383
REMARK  158  A    between atoms: _382  and  _385
REMARK  159  A    between atoms: _385  and  _386
REMARK  160  A    between atoms: _386  and  _387
REMARK  161  A    between atoms: _387  and  _388
REMARK  162  A    between atoms: _388  and  _389
REMARK  163  A    between atoms: _393  and  _395
REMARK  164  A    between atoms: _395  and  _396
REMARK  165  A    between atoms: _395  and  _398
REMARK  166  A    between atoms: _398  and  _399
REMARK  167  A    between atoms: _399  and  _400
REMARK  168  A    between atoms: _402  and  _404
REMARK  169  A    between atoms: _404  and  _405
REMARK  170  A    between atoms: _404  and  _407
REMARK  171  A    between atoms: _407  and  _408
REMARK  172  A    between atoms: _411  and  _413
REMARK  173  A    between atoms: _413  and  _414
REMARK  174  A    between atoms: _416  and  _418
REMARK  175  A    between atoms: _418  and  _419
REMARK  176  A    between atoms: _421  and  _423
REMARK  177  A    between atoms: _423  and  _424
REMARK  178  A    between atoms: _423  and  _426
REMARK  179  A    between atoms: _426  and  _427
REMARK  180  A    between atoms: _430  and  _432
REMARK  181  A    between atoms: _432  and  _433
REMARK  182  A    between atoms: _435  and  _437
REMARK  183  A    between atoms: _437  and  _438
REMARK  184  A    between atoms: _440  and  _442
REMARK  185  A    between atoms: _442  and  _443
REMARK  186  A    between atoms: _442  and  _445
REMARK  187  A    between atoms: _445  and  _446
REMARK  188  A    between atoms: _452  and  _454
REMARK  189  A    between atoms: _454  and  _455
REMARK  190  A    between atoms: _454  and  _457
REMARK  191  A    between atoms: _457  and  _458
REMARK  192  A    between atoms: _461  and  _463
REMARK  193  A    between atoms: _463  and  _464
REMARK  194  A    between atoms: _463  and  _466
REMARK  195  A    between atoms: _469  and  _471
REMARK  196  A    between atoms: _471  and  _472
REMARK  197  A    between atoms: _471  and  _474
REMARK  198  A    between atoms: _474  and  _475
REMARK  199  A    between atoms: _479  and  _480
REMARK  200  A    between atoms: _485  and  _487
REMARK  201  A    between atoms: _487  and  _488
REMARK  202  A    between atoms: _487  and  _490
REMARK  203  A    between atoms: _490  and  _491
REMARK  204  A    between atoms: _495  and  _496
REMARK  205  A    between atoms: _501  and  _503
REMARK  206  A    between atoms: _503  and  _504
REMARK  207  A    between atoms: _503  and  _506
REMARK  208  A    between atoms: _509  and  _511
REMARK  209  A    between atoms: _511  and  _512
REMARK  210  A    between atoms: _511  and  _514
REMARK  211  A    between atoms: _514  and  _515
REMARK  212  A    between atoms: _520  and  _522
REMARK  213  A    between atoms: _522  and  _523
REMARK  214  A    between atoms: _522  and  _525
REMARK  215  A    between atoms: _525  and  _526
REMARK  216  A    between atoms: _529  and  _531
REMARK  217  A    between atoms: _531  and  _532
REMARK  218  A    between atoms: _531  and  _534
REMARK  219  A    between atoms: _534  and  _535
REMARK  220  A    between atoms: _538  and  _540
REMARK  221  A    between atoms: _540  and  _541
REMARK  222  A    between atoms: _543  and  _545
REMARK  223  A    between atoms: _545  and  _546
REMARK  224  A    between atoms: _545  and  _548
REMARK  225  A    between atoms: _548  and  _549
REMARK  226  A    between atoms: _549  and  _550
REMARK  227  A    between atoms: _550  and  _551
REMARK  228  A    between atoms: _560  and  _562
REMARK  229  A    between atoms: _562  and  _563
REMARK  230  A    between atoms: _562  and  _565
REMARK  231  A    between atoms: _565  and  _566
REMARK                            x       y       z     vdW  Elec       q    Type
REMARK                         _______ _______ _______ _____ _____    ______ ____
ROOT
ATOM      1  O   HOH     1      22.273  16.569  10.825  0.00  0.00    +0.000 OA
ENDROOT
TORSDOF 0
REMARK  Name = ../refined-set-2016/2q5k/2q5k_pocket.pdb
REMARK  231 active torsions:
REMARK  status: ('A' for Active; 'I' for Inactive)
REMARK    1  A    between atoms: _1  and  _3
REMARK    2  A    between atoms: _3  and  _4
REMARK    3  A    between atoms: _3  and  _6
REMARK    4  A    between atoms: _6  and  _7
REMARK    5  A    between atoms: _7  and  _8
REMARK    6  A    between atoms: _8  and  _9
REMARK    7  A    between atoms: _18  and  _20
REMARK    8  A    between atoms: _20  and  _21
REMARK    9  A    between atoms: _20  and  _23
REMARK   10  A    between atoms: _23  and  _24
REMARK   11  A    between atoms: _27  and  _29
REMARK   12  A    between atoms: _29  and  _30
REMARK   13  A    between atoms: _29  and  _32
REMARK   14  A    between atoms: _32  and  _33
REMARK   15  A    between atoms: _36  and  _38
REMARK   16  A    between atoms: _38  and  _39
REMARK   17  A    between atoms: _38  and  _41
REMARK   18  A    between atoms: _41  and  _42
REMARK   19  A    between atoms: _45  and  _47
REMARK   20  A    between atoms: _47  and  _48
REMARK   21  A    between atoms: _47  and  _50
REMARK   22  A    between atoms: _50  and  _51
REMARK   23  A    between atoms: _54  and  _56
REMARK   24  A    between atoms: _56  and  _57
REMARK   25  A    between atoms: _59  and  _61
REMARK   26  A    between atoms: _61  and  _62
REMARK   27  A    between atoms: _65  and  _67
REMARK   28  A    between atoms: _67  and  _68
REMARK   29  A    between atoms: _67  and  _70
REMARK   30  A    between atoms: _70  and  _71
REMARK   31  A    between atoms: _74  and  _76
REMARK   32  A    between atoms: _76  and  _77
REMARK   33  A    between atoms: _76  and  _79
REMARK   34  A    between atoms: _79  and  _80
REMARK   35  A    between atoms: _83  and  _85
REMARK   36  A    between atoms: _85  and  _86
REMARK   37  A    between atoms: _85  and  _88
REMARK   38  A    between atoms: _88  and  _89
REMARK   39  A    between atoms: _92  and  _94
REMARK   40  A    between atoms: _94  and  _95
REMARK   41  A    between atoms: _94  and  _97
REMARK   42  A    between atoms: _100  and  _102
REMARK   43  A    between atoms: _102  and  _103
REMARK   44  A    between atoms: _102  and  _105
REMARK   45  A    between atoms: _105  and  _106
REMARK   46  A    between atoms: _106  and  _107
REMARK   47  A    between atoms: _107  and  _108
REMARK   48  A    between atoms: _108  and  _109
REMARK   49  A    between atoms: _113  and  _115
REMARK   50  A    between atoms: _115  and  _116
REMARK   51  A    between atoms: _115  and  _118
REMARK   52  A    between atoms: _118  and  _119
REMARK   53  A    between atoms: _119  and  _120
REMARK   54  A    between atoms: _122  and  _124
REMARK   55  A    between atoms: _124  and  _125
REMARK   56  A    between atoms: _124  and  _127
REMARK   57  A    between atoms: _127  and  _128
REMARK   58  A    between atoms: _131  and  _133
REMARK   59  A    between atoms: _133  and  _134
REMARK   60  A    between atoms: _136  and  _138
REMARK   61  A    between atoms: _138  and  _139
REMARK   62  A    between atoms: _141  and  _143
REMARK   63  A    between atoms: _143  and  _144
REMARK   64  A    between atoms: _143  and  _146
REMARK   65  A    between atoms: _146  and  _147
REMARK   66  A    between atoms: _150  and  _152
REMARK   67  A    between atoms: _152  and  _153
REMARK   68  A    between atoms: _155  and  _157
REMARK   69  A    between atoms: _157  and  _158
REMARK   70  A    between atoms: _160  and  _162
REMARK   71  A    between atoms: _162  and  _163
REMARK   72  A    between atoms: _162  and  _165
REMARK   73  A    between atoms: _165  and  _166
REMARK   74  A    between atoms: _172  and  _174
REMARK   75  A    between atoms: _174  and  _175
REMARK   76  A    between atoms: _174  and  _177
REMARK   77  A    between atoms: _177  and  _178
REMARK   78  A    between atoms: _181  and  _183
REMARK   79  A    between atoms: _183  and  _184
REMARK   80  A    between atoms: _183  and  _186
REMARK   81  A    between atoms: _186  and  _187
REMARK   82  A    between atoms: _191  and  _192
REMARK   83  A    between atoms: _197  and  _199
REMARK   84  A    between atoms: _199  and  _200
REMARK   85  A    between atoms: _199  and  _202
REMARK   86  A    between atoms: _202  and  _203
REMARK   87  A    between atoms: _207  and  _208
REMARK   88  A    between atoms: _213  and  _215
REMARK   89  A    between atoms: _215  and  _216
REMARK   90  A    between atoms: _215  and  _218
REMARK   91  A    between atoms: _221  and  _223
REMARK   92  A    between atoms: _223  and  _224
REMARK   93  A    between atoms: _223  and  _226
REMARK   94  A    between atoms: _226  and  _227
REMARK   95  A    between atoms: _232  and  _234
REMARK   96  A    between atoms: _234  and  _235
REMARK   97  A    between atoms: _234  and  _237
REMARK   98  A    between atoms: _237  and  _238
REMARK   99  A    between atoms: _241  and  _243
REMARK  100  A    between atoms: _243  and  _244
REMARK  101  A    between atoms: _243  and  _246
REMARK  102  A    between atoms: _246  and  _247
REMARK  103  A    between atoms: _250  and  _252
REMARK  104  A    between atoms: _252  and  _253
REMARK  105  A    between atoms: _255  and  _257
REMARK  106  A    between atoms: _257  and  _258
REMARK  107  A    between atoms: _257  and  _260
REMARK  108  A    between atoms: _260  and  _261
REMARK  109  A    between atoms: _261  and  _262
REMARK  110  A    between atoms: _262  and  _263
REMARK  111  A    between atoms: _272  and  _274
REMARK  112  A    between atoms: _274  and  _275
REMARK  113  A    between atoms: _274  and  _277
REMARK  114  A    between atoms: _277  and  _278
REMARK  115  A    between atoms: _278  and  _279
REMARK  116  A    between atoms: _279  and  _280
REMARK  117  A    between atoms: _289  and  _291
REMARK  118  A    between atoms: _291  and  _292
REMARK  119  A    between atoms: _291  and  _294
REMARK  120  A    between atoms: _294  and  _295
REMARK  121  A    between atoms: _298  and  _300
REMARK  122  A    between atoms: _300  and  _301
REMARK  123  A    between atoms: _300  and  _303
REMARK  124  A    between atoms: _303  and  _304
REMARK  125  A    between atoms: _307  and  _309
REMARK  126  A    between atoms: _309  and  _310
REMARK  127  A    between atoms: _309  and  _312
REMARK  128  A    between atoms: _312  and  _313
REMARK  129  A    between atoms: _316  and  _318
REMARK  130  A    between atoms: _318  and  _319
REMARK  131  A    between atoms: _318  and  _321
REMARK  132  A    between atoms: _321  and  _322
REMARK  133  A    between atoms: _325  and  _327
REMARK  134  A    between atoms: _327  and  _328
REMARK  135  A    between atoms: _330  and  _332
REMARK  136  A    between atoms: _332  and  _333
REMARK  137  A    between atoms: _336  and  _338
REMARK  138  A    between atoms: _338  and  _339
REMARK  139  A    between atoms: _338  and  _341
REMARK  140  A    between atoms: _341  and  _342
REMARK  141  A    between atoms: _345  and  _347
REMARK  142  A    between atoms: _347  and  _348
REMARK  143  A    between atoms: _347  and  _350
REMARK  144  A    between atoms: _350  and  _351
REMARK  145  A    between atoms: _354  and  _356
REMARK  146  A    between atoms: _356  and  _357
REMARK  147  A    between atoms: _356  and  _359
REMARK  148  A    between atoms: _359  and  _360
REMARK  149  A    between atoms: _363  and  _365
REMARK  150  A    between atoms: _365  and  _366
REMARK  151  A    between atoms: _365  and  _368
REMARK  152  A    between atoms: _371  and  _373
REMARK  153  A    between atoms: _373  and  _374
REMARK  154  A    between atoms: _373  and  _376
REMARK  155  A    between atoms: _376  and  _377
REMARK  156  A    between atoms: _380  and  _382
REMARK  157  A    between atoms: _382  and  _383
REMARK  158  A    between atoms: _382  and  _385
REMARK  159  A    between atoms: _385  and  _386
REMARK  160  A    between atoms: _386  and  _387
REMARK  161  A    between atoms: _387  and  _388
REMARK  162  A    between atoms: _388  and  _389
REMARK  163  A    between atoms: _393  and  _395
REMARK  164  A    between atoms: _395  and  _396
REMARK  165  A    between atoms: _395  and  _398
REMARK  166  A    between atoms: _398  and  _399
REMARK  167  A    between atoms: _399  and  _400
REMARK  168  A    between atoms: _402  and  _404
REMARK  169  A    between atoms: _404  and  _405
REMARK  170  A    between atoms: _404  and  _407
REMARK  171  A    between atoms: _407  and  _408
REMARK  172  A    between atoms: _411  and  _413
REMARK  173  A    between atoms: _413  and  _414
REMARK  174  A    between atoms: _416  and  _418
REMARK  175  A    between atoms: _418  and  _419
REMARK  176  A    between atoms: _421  and  _423
REMARK  177  A    between atoms: _423  and  _424
REMARK  178  A    between atoms: _423  and  _426
REMARK  179  A    between atoms: _426  and  _427
REMARK  180  A    between atoms: _430  and  _432
REMARK  181  A    between atoms: _432  and  _433
REMARK  182  A    between atoms: _435  and  _437
REMARK  183  A    between atoms: _437  and  _438
REMARK  184  A    between atoms: _440  and  _442
REMARK  185  A    between atoms: _442  and  _443
REMARK  186  A    between atoms: _442  and  _445
REMARK  187  A    between atoms: _445  and  _446
REMARK  188  A    between atoms: _452  and  _454
REMARK  189  A    between atoms: _454  and  _455
REMARK  190  A    between atoms: _454  and  _457
REMARK  191  A    between atoms: _457  and  _458
REMARK  192  A    between atoms: _461  and  _463
REMARK  193  A    between atoms: _463  and  _464
REMARK  194  A    between atoms: _463  and  _466
REMARK  195  A    between atoms: _469  and  _471
REMARK  196  A    between atoms: _471  and  _472
REMARK  197  A    between atoms: _471  and  _474
REMARK  198  A    between atoms: _474  and  _475
REMARK  199  A    between atoms: _479  and  _480
REMARK  200  A    between atoms: _485  and  _487
REMARK  201  A    between atoms: _487  and  _488
REMARK  202  A    between atoms: _487  and  _490
REMARK  203  A    between atoms: _490  and  _491
REMARK  204  A    between atoms: _495  and  _496
REMARK  205  A    between atoms: _501  and  _503
REMARK  206  A    between atoms: _503  and  _504
REMARK  207  A    between atoms: _503  and  _506
REMARK  208  A    between atoms: _509  and  _511
REMARK  209  A    between atoms: _511  and  _512
REMARK  210  A    between atoms: _511  and  _514
REMARK  211  A    between atoms: _514  and  _515
REMARK  212  A    between atoms: _520  and  _522
REMARK  213  A    between atoms: _522  and  _523
REMARK  214  A    between atoms: _522  and  _525
REMARK  215  A    between atoms: _525  and  _526
REMARK  216  A    between atoms: _529  and  _531
REMARK  217  A    between atoms: _531  and  _532
REMARK  218  A    between atoms: _531  and  _534
REMARK  219  A    between atoms: _534  and  _535
REMARK  220  A    between atoms: _538  and  _540
REMARK  221  A    between atoms: _540  and  _541
REMARK  222  A    between atoms: _543  and  _545
REMARK  223  A    between atoms: _545  and  _546
REMARK  224  A    between atoms: _545  and  _548
REMARK  225  A    between atoms: _548  and  _549
REMARK  226  A    between atoms: _549  and  _550
REMARK  227  A    between atoms: _550  and  _551
REMARK  228  A    between atoms: _560  and  _562
REMARK  229  A    between atoms: _562  and  _563
REMARK  230  A    between atoms: _562  and  _565
REMARK  231  A    between atoms: _565  and  _566
REMARK                            x       y       z     vdW  Elec       q    Type
REMARK                         _______ _______ _______ _____ _____    ______ ____
ROOT
ATOM      1  O   HOH     1      31.771  23.156  12.079  0.00  0.00    +0.000 OA
ENDROOT
TORSDOF 0
REMARK  Name = ../refined-set-2016/2q5k/2q5k_pocket.pdb
REMARK  231 active torsions:
REMARK  status: ('A' for Active; 'I' for Inactive)
REMARK    1  A    between atoms: _1  and  _3
REMARK    2  A    between atoms: _3  and  _4
REMARK    3  A    between atoms: _3  and  _6
REMARK    4  A    between atoms: _6  and  _7
REMARK    5  A    between atoms: _7  and  _8
REMARK    6  A    between atoms: _8  and  _9
REMARK    7  A    between atoms: _18  and  _20
REMARK    8  A    between atoms: _20  and  _21
REMARK    9  A    between atoms: _20  and  _23
REMARK   10  A    between atoms: _23  and  _24
REMARK   11  A    between atoms: _27  and  _29
REMARK   12  A    between atoms: _29  and  _30
REMARK   13  A    between atoms: _29  and  _32
REMARK   14  A    between atoms: _32  and  _33
REMARK   15  A    between atoms: _36  and  _38
REMARK   16  A    between atoms: _38  and  _39
REMARK   17  A    between atoms: _38  and  _41
REMARK   18  A    between atoms: _41  and  _42
REMARK   19  A    between atoms: _45  and  _47
REMARK   20  A    between atoms: _47  and  _48
REMARK   21  A    between atoms: _47  and  _50
REMARK   22  A    between atoms: _50  and  _51
REMARK   23  A    between atoms: _54  and  _56
REMARK   24  A    between atoms: _56  and  _57
REMARK   25  A    between atoms: _59  and  _61
REMARK   26  A    between atoms: _61  and  _62
REMARK   27  A    between atoms: _65  and  _67
REMARK   28  A    between atoms: _67  and  _68
REMARK   29  A    between atoms: _67  and  _70
REMARK   30  A    between atoms: _70  and  _71
REMARK   31  A    between atoms: _74  and  _76
REMARK   32  A    between atoms: _76  and  _77
REMARK   33  A    between atoms: _76  and  _79
REMARK   34  A    between atoms: _79  and  _80
REMARK   35  A    between atoms: _83  and  _85
REMARK   36  A    between atoms: _85  and  _86
REMARK   37  A    between atoms: _85  and  _88
REMARK   38  A    between atoms: _88  and  _89
REMARK   39  A    between atoms: _92  and  _94
REMARK   40  A    between atoms: _94  and  _95
REMARK   41  A    between atoms: _94  and  _97
REMARK   42  A    between atoms: _100  and  _102
REMARK   43  A    between atoms: _102  and  _103
REMARK   44  A    between atoms: _102  and  _105
REMARK   45  A    between atoms: _105  and  _106
REMARK   46  A    between atoms: _106  and  _107
REMARK   47  A    between atoms: _107  and  _108
REMARK   48  A    between atoms: _108  and  _109
REMARK   49  A    between atoms: _113  and  _115
REMARK   50  A    between atoms: _115  and  _116
REMARK   51  A    between atoms: _115  and  _118
REMARK   52  A    between atoms: _118  and  _119
REMARK   53  A    between atoms: _119  and  _120
REMARK   54  A    between atoms: _122  and  _124
REMARK   55  A    between atoms: _124  and  _125
REMARK   56  A    between atoms: _124  and  _127
REMARK   57  A    between atoms: _127  and  _128
REMARK   58  A    between atoms: _131  and  _133
REMARK   59  A    between atoms: _133  and  _134
REMARK   60  A    between atoms: _136  and  _138
REMARK   61  A    between atoms: _138  and  _139
REMARK   62  A    between atoms: _141  and  _143
REMARK   63  A    between atoms: _143  and  _144
REMARK   64  A    between atoms: _143  and  _146
REMARK   65  A    between atoms: _146  and  _147
REMARK   66  A    between atoms: _150  and  _152
REMARK   67  A    between atoms: _152  and  _153
REMARK   68  A    between atoms: _155  and  _157
REMARK   69  A    between atoms: _157  and  _158
REMARK   70  A    between atoms: _160  and  _162
REMARK   71  A    between atoms: _162  and  _163
REMARK   72  A    between atoms: _162  and  _165
REMARK   73  A    between atoms: _165  and  _166
REMARK   74  A    between atoms: _172  and  _174
REMARK   75  A    between atoms: _174  and  _175
REMARK   76  A    between atoms: _174  and  _177
REMARK   77  A    between atoms: _177  and  _178
REMARK   78  A    between atoms: _181  and  _183
REMARK   79  A    between atoms: _183  and  _184
REMARK   80  A    between atoms: _183  and  _186
REMARK   81  A    between atoms: _186  and  _187
REMARK   82  A    between atoms: _191  and  _192
REMARK   83  A    between atoms: _197  and  _199
REMARK   84  A    between atoms: _199  and  _200
REMARK   85  A    between atoms: _199  and  _202
REMARK   86  A    between atoms: _202  and  _203
REMARK   87  A    between atoms: _207  and  _208
REMARK   88  A    between atoms: _213  and  _215
REMARK   89  A    between atoms: _215  and  _216
REMARK   90  A    between atoms: _215  and  _218
REMARK   91  A    between atoms: _221  and  _223
REMARK   92  A    between atoms: _223  and  _224
REMARK   93  A    between atoms: _223  and  _226
REMARK   94  A    between atoms: _226  and  _227
REMARK   95  A    between atoms: _232  and  _234
REMARK   96  A    between atoms: _234  and  _235
REMARK   97  A    between atoms: _234  and  _237
REMARK   98  A    between atoms: _237  and  _238
REMARK   99  A    between atoms: _241  and  _243
REMARK  100  A    between atoms: _243  and  _244
REMARK  101  A    between atoms: _243  and  _246
REMARK  102  A    between atoms: _246  and  _247
REMARK  103  A    between atoms: _250  and  _252
REMARK  104  A    between atoms: _252  and  _253
REMARK  105  A    between atoms: _255  and  _257
REMARK  106  A    between atoms: _257  and  _258
REMARK  107  A    between atoms: _257  and  _260
REMARK  108  A    between atoms: _260  and  _261
REMARK  109  A    between atoms: _261  and  _262
REMARK  110  A    between atoms: _262  and  _263
REMARK  111  A    between atoms: _272  and  _274
REMARK  112  A    between atoms: _274  and  _275
REMARK  113  A    between atoms: _274  and  _277
REMARK  114  A    between atoms: _277  and  _278
REMARK  115  A    between atoms: _278  and  _279
REMARK  116  A    between atoms: _279  and  _280
REMARK  117  A    between atoms: _289  and  _291
REMARK  118  A    between atoms: _291  and  _292
REMARK  119  A    between atoms: _291  and  _294
REMARK  120  A    between atoms: _294  and  _295
REMARK  121  A    between atoms: _298  and  _300
REMARK  122  A    between atoms: _300  and  _301
REMARK  123  A    between atoms: _300  and  _303
REMARK  124  A    between atoms: _303  and  _304
REMARK  125  A    between atoms: _307  and  _309
REMARK  126  A    between atoms: _309  and  _310
REMARK  127  A    between atoms: _309  and  _312
REMARK  128  A    between atoms: _312  and  _313
REMARK  129  A    between atoms: _316  and  _318
REMARK  130  A    between atoms: _318  and  _319
REMARK  131  A    between atoms: _318  and  _321
REMARK  132  A    between atoms: _321  and  _322
REMARK  133  A    between atoms: _325  and  _327
REMARK  134  A    between atoms: _327  and  _328
REMARK  135  A    between atoms: _330  and  _332
REMARK  136  A    between atoms: _332  and  _333
REMARK  137  A    between atoms: _336  and  _338
REMARK  138  A    between atoms: _338  and  _339
REMARK  139  A    between atoms: _338  and  _341
REMARK  140  A    between atoms: _341  and  _342
REMARK  141  A    between atoms: _345  and  _347
REMARK  142  A    between atoms: _347  and  _348
REMARK  143  A    between atoms: _347  and  _350
REMARK  144  A    between atoms: _350  and  _351
REMARK  145  A    between atoms: _354  and  _356
REMARK  146  A    between atoms: _356  and  _357
REMARK  147  A    between atoms: _356  and  _359
REMARK  148  A    between atoms: _359  and  _360
REMARK  149  A    between atoms: _363  and  _365
REMARK  150  A    between atoms: _365  and  _366
REMARK  151  A    between atoms: _365  and  _368
REMARK  152  A    between atoms: _371  and  _373
REMARK  153  A    between atoms: _373  and  _374
REMARK  154  A    between atoms: _373  and  _376
REMARK  155  A    between atoms: _376  and  _377
REMARK  156  A    between atoms: _380  and  _382
REMARK  157  A    between atoms: _382  and  _383
REMARK  158  A    between atoms: _382  and  _385
REMARK  159  A    between atoms: _385  and  _386
REMARK  160  A    between atoms: _386  and  _387
REMARK  161  A    between atoms: _387  and  _388
REMARK  162  A    between atoms: _388  and  _389
REMARK  163  A    between atoms: _393  and  _395
REMARK  164  A    between atoms: _395  and  _396
REMARK  165  A    between atoms: _395  and  _398
REMARK  166  A    between atoms: _398  and  _399
REMARK  167  A    between atoms: _399  and  _400
REMARK  168  A    between atoms: _402  and  _404
REMARK  169  A    between atoms: _404  and  _405
REMARK  170  A    between atoms: _404  and  _407
REMARK  171  A    between atoms: _407  and  _408
REMARK  172  A    between atoms: _411  and  _413
REMARK  173  A    between atoms: _413  and  _414
REMARK  174  A    between atoms: _416  and  _418
REMARK  175  A    between atoms: _418  and  _419
REMARK  176  A    between atoms: _421  and  _423
REMARK  177  A    between atoms: _423  and  _424
REMARK  178  A    between atoms: _423  and  _426
REMARK  179  A    between atoms: _426  and  _427
REMARK  180  A    between atoms: _430  and  _432
REMARK  181  A    between atoms: _432  and  _433
REMARK  182  A    between atoms: _435  and  _437
REMARK  183  A    between atoms: _437  and  _438
REMARK  184  A    between atoms: _440  and  _442
REMARK  185  A    between atoms: _442  and  _443
REMARK  186  A    between atoms: _442  and  _445
REMARK  187  A    between atoms: _445  and  _446
REMARK  188  A    between atoms: _452  and  _454
REMARK  189  A    between atoms: _454  and  _455
REMARK  190  A    between atoms: _454  and  _457
REMARK  191  A    between atoms: _457  and  _458
REMARK  192  A    between atoms: _461  and  _463
REMARK  193  A    between atoms: _463  and  _464
REMARK  194  A    between atoms: _463  and  _466
REMARK  195  A    between atoms: _469  and  _471
REMARK  196  A    between atoms: _471  and  _472
REMARK  197  A    between atoms: _471  and  _474
REMARK  198  A    between atoms: _474  and  _475
REMARK  199  A    between atoms: _479  and  _480
REMARK  200  A    between atoms: _485  and  _487
REMARK  201  A    between atoms: _487  and  _488
REMARK  202  A    between atoms: _487  and  _490
REMARK  203  A    between atoms: _490  and  _491
REMARK  204  A    between atoms: _495  and  _496
REMARK  205  A    between atoms: _501  and  _503
REMARK  206  A    between atoms: _503  and  _504
REMARK  207  A    between atoms: _503  and  _506
REMARK  208  A    between atoms: _509  and  _511
REMARK  209  A    between atoms: _511  and  _512
REMARK  210  A    between atoms: _511  and  _514
REMARK  211  A    between atoms: _514  and  _515
REMARK  212  A    between atoms: _520  and  _522
REMARK  213  A    between atoms: _522  and  _523
REMARK  214  A    between atoms: _522  and  _525
REMARK  215  A    between atoms: _525  and  _526
REMARK  216  A    between atoms: _529  and  _531
REMARK  217  A    between atoms: _531  and  _532
REMARK  218  A    between atoms: _531  and  _534
REMARK  219  A    between atoms: _534  and  _535
REMARK  220  A    between atoms: _538  and  _540
REMARK  221  A    between atoms: _540  and  _541
REMARK  222  A    between atoms: _543  and  _545
REMARK  223  A    between atoms: _545  and  _546
REMARK  224  A    between atoms: _545  and  _548
REMARK  225  A    between atoms: _548  and  _549
REMARK  226  A    between atoms: _549  and  _550
REMARK  227  A    between atoms: _550  and  _551
REMARK  228  A    between atoms: _560  and  _562
REMARK  229  A    between atoms: _562  and  _563
REMARK  230  A    between atoms: _562  and  _565
REMARK  231  A    between atoms: _565  and  _566
REMARK                            x       y       z     vdW  Elec       q    Type
REMARK                         _______ _______ _______ _____ _____    ______ ____
ROOT
ATOM      1  O   HOH     1      20.167  22.851  12.715  0.00  0.00    +0.000 OA
ENDROOT
TORSDOF 0
REMARK  Name = ../refined-set-2016/2q5k/2q5k_pocket.pdb
REMARK  231 active torsions:
REMARK  status: ('A' for Active; 'I' for Inactive)
REMARK    1  A    between atoms: _1  and  _3
REMARK    2  A    between atoms: _3  and  _4
REMARK    3  A    between atoms: _3  and  _6
REMARK    4  A    between atoms: _6  and  _7
REMARK    5  A    between atoms: _7  and  _8
REMARK    6  A    between atoms: _8  and  _9
REMARK    7  A    between atoms: _18  and  _20
REMARK    8  A    between atoms: _20  and  _21
REMARK    9  A    between atoms: _20  and  _23
REMARK   10  A    between atoms: _23  and  _24
REMARK   11  A    between atoms: _27  and  _29
REMARK   12  A    between atoms: _29  and  _30
REMARK   13  A    between atoms: _29  and  _32
REMARK   14  A    between atoms: _32  and  _33
REMARK   15  A    between atoms: _36  and  _38
REMARK   16  A    between atoms: _38  and  _39
REMARK   17  A    between atoms: _38  and  _41
REMARK   18  A    between atoms: _41  and  _42
REMARK   19  A    between atoms: _45  and  _47
REMARK   20  A    between atoms: _47  and  _48
REMARK   21  A    between atoms: _47  and  _50
REMARK   22  A    between atoms: _50  and  _51
REMARK   23  A    between atoms: _54  and  _56
REMARK   24  A    between atoms: _56  and  _57
REMARK   25  A    between atoms: _59  and  _61
REMARK   26  A    between atoms: _61  and  _62
REMARK   27  A    between atoms: _65  and  _67
REMARK   28  A    between atoms: _67  and  _68
REMARK   29  A    between atoms: _67  and  _70
REMARK   30  A    between atoms: _70  and  _71
REMARK   31  A    between atoms: _74  and  _76
REMARK   32  A    between atoms: _76  and  _77
REMARK   33  A    between atoms: _76  and  _79
REMARK   34  A    between atoms: _79  and  _80
REMARK   35  A    between atoms: _83  and  _85
REMARK   36  A    between atoms: _85  and  _86
REMARK   37  A    between atoms: _85  and  _88
REMARK   38  A    between atoms: _88  and  _89
REMARK   39  A    between atoms: _92  and  _94
REMARK   40  A    between atoms: _94  and  _95
REMARK   41  A    between atoms: _94  and  _97
REMARK   42  A    between atoms: _100  and  _102
REMARK   43  A    between atoms: _102  and  _103
REMARK   44  A    between atoms: _102  and  _105
REMARK   45  A    between atoms: _105  and  _106
REMARK   46  A    between atoms: _106  and  _107
REMARK   47  A    between atoms: _107  and  _108
REMARK   48  A    between atoms: _108  and  _109
REMARK   49  A    between atoms: _113  and  _115
REMARK   50  A    between atoms: _115  and  _116
REMARK   51  A    between atoms: _115  and  _118
REMARK   52  A    between atoms: _118  and  _119
REMARK   53  A    between atoms: _119  and  _120
REMARK   54  A    between atoms: _122  and  _124
REMARK   55  A    between atoms: _124  and  _125
REMARK   56  A    between atoms: _124  and  _127
REMARK   57  A    between atoms: _127  and  _128
REMARK   58  A    between atoms: _131  and  _133
REMARK   59  A    between atoms: _133  and  _134
REMARK   60  A    between atoms: _136  and  _138
REMARK   61  A    between atoms: _138  and  _139
REMARK   62  A    between atoms: _141  and  _143
REMARK   63  A    between atoms: _143  and  _144
REMARK   64  A    between atoms: _143  and  _146
REMARK   65  A    between atoms: _146  and  _147
REMARK   66  A    between atoms: _150  and  _152
REMARK   67  A    between atoms: _152  and  _153
REMARK   68  A    between atoms: _155  and  _157
REMARK   69  A    between atoms: _157  and  _158
REMARK   70  A    between atoms: _160  and  _162
REMARK   71  A    between atoms: _162  and  _163
REMARK   72  A    between atoms: _162  and  _165
REMARK   73  A    between atoms: _165  and  _166
REMARK   74  A    between atoms: _172  and  _174
REMARK   75  A    between atoms: _174  and  _175
REMARK   76  A    between atoms: _174  and  _177
REMARK   77  A    between atoms: _177  and  _178
REMARK   78  A    between atoms: _181  and  _183
REMARK   79  A    between atoms: _183  and  _184
REMARK   80  A    between atoms: _183  and  _186
REMARK   81  A    between atoms: _186  and  _187
REMARK   82  A    between atoms: _191  and  _192
REMARK   83  A    between atoms: _197  and  _199
REMARK   84  A    between atoms: _199  and  _200
REMARK   85  A    between atoms: _199  and  _202
REMARK   86  A    between atoms: _202  and  _203
REMARK   87  A    between atoms: _207  and  _208
REMARK   88  A    between atoms: _213  and  _215
REMARK   89  A    between atoms: _215  and  _216
REMARK   90  A    between atoms: _215  and  _218
REMARK   91  A    between atoms: _221  and  _223
REMARK   92  A    between atoms: _223  and  _224
REMARK   93  A    between atoms: _223  and  _226
REMARK   94  A    between atoms: _226  and  _227
REMARK   95  A    between atoms: _232  and  _234
REMARK   96  A    between atoms: _234  and  _235
REMARK   97  A    between atoms: _234  and  _237
REMARK   98  A    between atoms: _237  and  _238
REMARK   99  A    between atoms: _241  and  _243
REMARK  100  A    between atoms: _243  and  _244
REMARK  101  A    between atoms: _243  and  _246
REMARK  102  A    between atoms: _246  and  _247
REMARK  103  A    between atoms: _250  and  _252
REMARK  104  A    between atoms: _252  and  _253
REMARK  105  A    between atoms: _255  and  _257
REMARK  106  A    between atoms: _257  and  _258
REMARK  107  A    between atoms: _257  and  _260
REMARK  108  A    between atoms: _260  and  _261
REMARK  109  A    between atoms: _261  and  _262
REMARK  110  A    between atoms: _262  and  _263
REMARK  111  A    between atoms: _272  and  _274
REMARK  112  A    between atoms: _274  and  _275
REMARK  113  A    between atoms: _274  and  _277
REMARK  114  A    between atoms: _277  and  _278
REMARK  115  A    between atoms: _278  and  _279
REMARK  116  A    between atoms: _279  and  _280
REMARK  117  A    between atoms: _289  and  _291
REMARK  118  A    between atoms: _291  and  _292
REMARK  119  A    between atoms: _291  and  _294
REMARK  120  A    between atoms: _294  and  _295
REMARK  121  A    between atoms: _298  and  _300
REMARK  122  A    between atoms: _300  and  _301
REMARK  123  A    between atoms: _300  and  _303
REMARK  124  A    between atoms: _303  and  _304
REMARK  125  A    between atoms: _307  and  _309
REMARK  126  A    between atoms: _309  and  _310
REMARK  127  A    between atoms: _309  and  _312
REMARK  128  A    between atoms: _312  and  _313
REMARK  129  A    between atoms: _316  and  _318
REMARK  130  A    between atoms: _318  and  _319
REMARK  131  A    between atoms: _318  and  _321
REMARK  132  A    between atoms: _321  and  _322
REMARK  133  A    between atoms: _325  and  _327
REMARK  134  A    between atoms: _327  and  _328
REMARK  135  A    between atoms: _330  and  _332
REMARK  136  A    between atoms: _332  and  _333
REMARK  137  A    between atoms: _336  and  _338
REMARK  138  A    between atoms: _338  and  _339
REMARK  139  A    between atoms: _338  and  _341
REMARK  140  A    between atoms: _341  and  _342
REMARK  141  A    between atoms: _345  and  _347
REMARK  142  A    between atoms: _347  and  _348
REMARK  143  A    between atoms: _347  and  _350
REMARK  144  A    between atoms: _350  and  _351
REMARK  145  A    between atoms: _354  and  _356
REMARK  146  A    between atoms: _356  and  _357
REMARK  147  A    between atoms: _356  and  _359
REMARK  148  A    between atoms: _359  and  _360
REMARK  149  A    between atoms: _363  and  _365
REMARK  150  A    between atoms: _365  and  _366
REMARK  151  A    between atoms: _365  and  _368
REMARK  152  A    between atoms: _371  and  _373
REMARK  153  A    between atoms: _373  and  _374
REMARK  154  A    between atoms: _373  and  _376
REMARK  155  A    between atoms: _376  and  _377
REMARK  156  A    between atoms: _380  and  _382
REMARK  157  A    between atoms: _382  and  _383
REMARK  158  A    between atoms: _382  and  _385
REMARK  159  A    between atoms: _385  and  _386
REMARK  160  A    between atoms: _386  and  _387
REMARK  161  A    between atoms: _387  and  _388
REMARK  162  A    between atoms: _388  and  _389
REMARK  163  A    between atoms: _393  and  _395
REMARK  164  A    between atoms: _395  and  _396
REMARK  165  A    between atoms: _395  and  _398
REMARK  166  A    between atoms: _398  and  _399
REMARK  167  A    between atoms: _399  and  _400
REMARK  168  A    between atoms: _402  and  _404
REMARK  169  A    between atoms: _404  and  _405
REMARK  170  A    between atoms: _404  and  _407
REMARK  171  A    between atoms: _407  and  _408
REMARK  172  A    between atoms: _411  and  _413
REMARK  173  A    between atoms: _413  and  _414
REMARK  174  A    between atoms: _416  and  _418
REMARK  175  A    between atoms: _418  and  _419
REMARK  176  A    between atoms: _421  and  _423
REMARK  177  A    between atoms: _423  and  _424
REMARK  178  A    between atoms: _423  and  _426
REMARK  179  A    between atoms: _426  and  _427
REMARK  180  A    between atoms: _430  and  _432
REMARK  181  A    between atoms: _432  and  _433
REMARK  182  A    between atoms: _435  and  _437
REMARK  183  A    between atoms: _437  and  _438
REMARK  184  A    between atoms: _440  and  _442
REMARK  185  A    between atoms: _442  and  _443
REMARK  186  A    between atoms: _442  and  _445
REMARK  187  A    between atoms: _445  and  _446
REMARK  188  A    between atoms: _452  and  _454
REMARK  189  A    between atoms: _454  and  _455
REMARK  190  A    between atoms: _454  and  _457
REMARK  191  A    between atoms: _457  and  _458
REMARK  192  A    between atoms: _461  and  _463
REMARK  193  A    between atoms: _463  and  _464
REMARK  194  A    between atoms: _463  and  _466
REMARK  195  A    between atoms: _469  and  _471
REMARK  196  A    between atoms: _471  and  _472
REMARK  197  A    between atoms: _471  and  _474
REMARK  198  A    between atoms: _474  and  _475
REMARK  199  A    between atoms: _479  and  _480
REMARK  200  A    between atoms: _485  and  _487
REMARK  201  A    between atoms: _487  and  _488
REMARK  202  A    between atoms: _487  and  _490
REMARK  203  A    between atoms: _490  and  _491
REMARK  204  A    between atoms: _495  and  _496
REMARK  205  A    between atoms: _501  and  _503
REMARK  206  A    between atoms: _503  and  _504
REMARK  207  A    between atoms: _503  and  _506
REMARK  208  A    between atoms: _509  and  _511
REMARK  209  A    between atoms: _511  and  _512
REMARK  210  A    between atoms: _511  and  _514
REMARK  211  A    between atoms: _514  and  _515
REMARK  212  A    between atoms: _520  and  _522
REMARK  213  A    between atoms: _522  and  _523
REMARK  214  A    between atoms: _522  and  _525
REMARK  215  A    between atoms: _525  and  _526
REMARK  216  A    between atoms: _529  and  _531
REMARK  217  A    between atoms: _531  and  _532
REMARK  218  A    between atoms: _531  and  _534
REMARK  219  A    between atoms: _534  and  _535
REMARK  220  A    between atoms: _538  and  _540
REMARK  221  A    between atoms: _540  and  _541
REMARK  222  A    between atoms: _543  and  _545
REMARK  223  A    between atoms: _545  and  _546
REMARK  224  A    between atoms: _545  and  _548
REMARK  225  A    between atoms: _548  and  _549
REMARK  226  A    between atoms: _549  and  _550
REMARK  227  A    between atoms: _550  and  _551
REMARK  228  A    between atoms: _560  and  _562
REMARK  229  A    between atoms: _562  and  _563
REMARK  230  A    between atoms: _562  and  _565
REMARK  231  A    between atoms: _565  and  _566
REMARK                            x       y       z     vdW  Elec       q    Type
REMARK                         _______ _______ _______ _____ _____    ______ ____
ROOT
ATOM      1  O   HOH     1      30.312  20.698  11.084  0.00  0.00    +0.000 OA
ENDROOT
TORSDOF 0
REMARK  Name = ../refined-set-2016/2q5k/2q5k_pocket.pdb
REMARK  231 active torsions:
REMARK  status: ('A' for Active; 'I' for Inactive)
REMARK    1  A    between atoms: _1  and  _3
REMARK    2  A    between atoms: _3  and  _4
REMARK    3  A    between atoms: _3  and  _6
REMARK    4  A    between atoms: _6  and  _7
REMARK    5  A    between atoms: _7  and  _8
REMARK    6  A    between atoms: _8  and  _9
REMARK    7  A    between atoms: _18  and  _20
REMARK    8  A    between atoms: _20  and  _21
REMARK    9  A    between atoms: _20  and  _23
REMARK   10  A    between atoms: _23  and  _24
REMARK   11  A    between atoms: _27  and  _29
REMARK   12  A    between atoms: _29  and  _30
REMARK   13  A    between atoms: _29  and  _32
REMARK   14  A    between atoms: _32  and  _33
REMARK   15  A    between atoms: _36  and  _38
REMARK   16  A    between atoms: _38  and  _39
REMARK   17  A    between atoms: _38  and  _41
REMARK   18  A    between atoms: _41  and  _42
REMARK   19  A    between atoms: _45  and  _47
REMARK   20  A    between atoms: _47  and  _48
REMARK   21  A    between atoms: _47  and  _50
REMARK   22  A    between atoms: _50  and  _51
REMARK   23  A    between atoms: _54  and  _56
REMARK   24  A    between atoms: _56  and  _57
REMARK   25  A    between atoms: _59  and  _61
REMARK   26  A    between atoms: _61  and  _62
REMARK   27  A    between atoms: _65  and  _67
REMARK   28  A    between atoms: _67  and  _68
REMARK   29  A    between atoms: _67  and  _70
REMARK   30  A    between atoms: _70  and  _71
REMARK   31  A    between atoms: _74  and  _76
REMARK   32  A    between atoms: _76  and  _77
REMARK   33  A    between atoms: _76  and  _79
REMARK   34  A    between atoms: _79  and  _80
REMARK   35  A    between atoms: _83  and  _85
REMARK   36  A    between atoms: _85  and  _86
REMARK   37  A    between atoms: _85  and  _88
REMARK   38  A    between atoms: _88  and  _89
REMARK   39  A    between atoms: _92  and  _94
REMARK   40  A    between atoms: _94  and  _95
REMARK   41  A    between atoms: _94  and  _97
REMARK   42  A    between atoms: _100  and  _102
REMARK   43  A    between atoms: _102  and  _103
REMARK   44  A    between atoms: _102  and  _105
REMARK   45  A    between atoms: _105  and  _106
REMARK   46  A    between atoms: _106  and  _107
REMARK   47  A    between atoms: _107  and  _108
REMARK   48  A    between atoms: _108  and  _109
REMARK   49  A    between atoms: _113  and  _115
REMARK   50  A    between atoms: _115  and  _116
REMARK   51  A    between atoms: _115  and  _118
REMARK   52  A    between atoms: _118  and  _119
REMARK   53  A    between atoms: _119  and  _120
REMARK   54  A    between atoms: _122  and  _124
REMARK   55  A    between atoms: _124  and  _125
REMARK   56  A    between atoms: _124  and  _127
REMARK   57  A    between atoms: _127  and  _128
REMARK   58  A    between atoms: _131  and  _133
REMARK   59  A    between atoms: _133  and  _134
REMARK   60  A    between atoms: _136  and  _138
REMARK   61  A    between atoms: _138  and  _139
REMARK   62  A    between atoms: _141  and  _143
REMARK   63  A    between atoms: _143  and  _144
REMARK   64  A    between atoms: _143  and  _146
REMARK   65  A    between atoms: _146  and  _147
REMARK   66  A    between atoms: _150  and  _152
REMARK   67  A    between atoms: _152  and  _153
REMARK   68  A    between atoms: _155  and  _157
REMARK   69  A    between atoms: _157  and  _158
REMARK   70  A    between atoms: _160  and  _162
REMARK   71  A    between atoms: _162  and  _163
REMARK   72  A    between atoms: _162  and  _165
REMARK   73  A    between atoms: _165  and  _166
REMARK   74  A    between atoms: _172  and  _174
REMARK   75  A    between atoms: _174  and  _175
REMARK   76  A    between atoms: _174  and  _177
REMARK   77  A    between atoms: _177  and  _178
REMARK   78  A    between atoms: _181  and  _183
REMARK   79  A    between atoms: _183  and  _184
REMARK   80  A    between atoms: _183  and  _186
REMARK   81  A    between atoms: _186  and  _187
REMARK   82  A    between atoms: _191  and  _192
REMARK   83  A    between atoms: _197  and  _199
REMARK   84  A    between atoms: _199  and  _200
REMARK   85  A    between atoms: _199  and  _202
REMARK   86  A    between atoms: _202  and  _203
REMARK   87  A    between atoms: _207  and  _208
REMARK   88  A    between atoms: _213  and  _215
REMARK   89  A    between atoms: _215  and  _216
REMARK   90  A    between atoms: _215  and  _218
REMARK   91  A    between atoms: _221  and  _223
REMARK   92  A    between atoms: _223  and  _224
REMARK   93  A    between atoms: _223  and  _226
REMARK   94  A    between atoms: _226  and  _227
REMARK   95  A    between atoms: _232  and  _234
REMARK   96  A    between atoms: _234  and  _235
REMARK   97  A    between atoms: _234  and  _237
REMARK   98  A    between atoms: _237  and  _238
REMARK   99  A    between atoms: _241  and  _243
REMARK  100  A    between atoms: _243  and  _244
REMARK  101  A    between atoms: _243  and  _246
REMARK  102  A    between atoms: _246  and  _247
REMARK  103  A    between atoms: _250  and  _252
REMARK  104  A    between atoms: _252  and  _253
REMARK  105  A    between atoms: _255  and  _257
REMARK  106  A    between atoms: _257  and  _258
REMARK  107  A    between atoms: _257  and  _260
REMARK  108  A    between atoms: _260  and  _261
REMARK  109  A    between atoms: _261  and  _262
REMARK  110  A    between atoms: _262  and  _263
REMARK  111  A    between atoms: _272  and  _274
REMARK  112  A    between atoms: _274  and  _275
REMARK  113  A    between atoms: _274  and  _277
REMARK  114  A    between atoms: _277  and  _278
REMARK  115  A    between atoms: _278  and  _279
REMARK  116  A    between atoms: _279  and  _280
REMARK  117  A    between atoms: _289  and  _291
REMARK  118  A    between atoms: _291  and  _292
REMARK  119  A    between atoms: _291  and  _294
REMARK  120  A    between atoms: _294  and  _295
REMARK  121  A    between atoms: _298  and  _300
REMARK  122  A    between atoms: _300  and  _301
REMARK  123  A    between atoms: _300  and  _303
REMARK  124  A    between atoms: _303  and  _304
REMARK  125  A    between atoms: _307  and  _309
REMARK  126  A    between atoms: _309  and  _310
REMARK  127  A    between atoms: _309  and  _312
REMARK  128  A    between atoms: _312  and  _313
REMARK  129  A    between atoms: _316  and  _318
REMARK  130  A    between atoms: _318  and  _319
REMARK  131  A    between atoms: _318  and  _321
REMARK  132  A    between atoms: _321  and  _322
REMARK  133  A    between atoms: _325  and  _327
REMARK  134  A    between atoms: _327  and  _328
REMARK  135  A    between atoms: _330  and  _332
REMARK  136  A    between atoms: _332  and  _333
REMARK  137  A    between atoms: _336  and  _338
REMARK  138  A    between atoms: _338  and  _339
REMARK  139  A    between atoms: _338  and  _341
REMARK  140  A    between atoms: _341  and  _342
REMARK  141  A    between atoms: _345  and  _347
REMARK  142  A    between atoms: _347  and  _348
REMARK  143  A    between atoms: _347  and  _350
REMARK  144  A    between atoms: _350  and  _351
REMARK  145  A    between atoms: _354  and  _356
REMARK  146  A    between atoms: _356  and  _357
REMARK  147  A    between atoms: _356  and  _359
REMARK  148  A    between atoms: _359  and  _360
REMARK  149  A    between atoms: _363  and  _365
REMARK  150  A    between atoms: _365  and  _366
REMARK  151  A    between atoms: _365  and  _368
REMARK  152  A    between atoms: _371  and  _373
REMARK  153  A    between atoms: _373  and  _374
REMARK  154  A    between atoms: _373  and  _376
REMARK  155  A    between atoms: _376  and  _377
REMARK  156  A    between atoms: _380  and  _382
REMARK  157  A    between atoms: _382  and  _383
REMARK  158  A    between atoms: _382  and  _385
REMARK  159  A    between atoms: _385  and  _386
REMARK  160  A    between atoms: _386  and  _387
REMARK  161  A    between atoms: _387  and  _388
REMARK  162  A    between atoms: _388  and  _389
REMARK  163  A    between atoms: _393  and  _395
REMARK  164  A    between atoms: _395  and  _396
REMARK  165  A    between atoms: _395  and  _398
REMARK  166  A    between atoms: _398  and  _399
REMARK  167  A    between atoms: _399  and  _400
REMARK  168  A    between atoms: _402  and  _404
REMARK  169  A    between atoms: _404  and  _405
REMARK  170  A    between atoms: _404  and  _407
REMARK  171  A    between atoms: _407  and  _408
REMARK  172  A    between atoms: _411  and  _413
REMARK  173  A    between atoms: _413  and  _414
REMARK  174  A    between atoms: _416  and  _418
REMARK  175  A    between atoms: _418  and  _419
REMARK  176  A    between atoms: _421  and  _423
REMARK  177  A    between atoms: _423  and  _424
REMARK  178  A    between atoms: _423  and  _426
REMARK  179  A    between atoms: _426  and  _427
REMARK  180  A    between atoms: _430  and  _432
REMARK  181  A    between atoms: _432  and  _433
REMARK  182  A    between atoms: _435  and  _437
REMARK  183  A    between atoms: _437  and  _438
REMARK  184  A    between atoms: _440  and  _442
REMARK  185  A    between atoms: _442  and  _443
REMARK  186  A    between atoms: _442  and  _445
REMARK  187  A    between atoms: _445  and  _446
REMARK  188  A    between atoms: _452  and  _454
REMARK  189  A    between atoms: _454  and  _455
REMARK  190  A    between atoms: _454  and  _457
REMARK  191  A    between atoms: _457  and  _458
REMARK  192  A    between atoms: _461  and  _463
REMARK  193  A    between atoms: _463  and  _464
REMARK  194  A    between atoms: _463  and  _466
REMARK  195  A    between atoms: _469  and  _471
REMARK  196  A    between atoms: _471  and  _472
REMARK  197  A    between atoms: _471  and  _474
REMARK  198  A    between atoms: _474  and  _475
REMARK  199  A    between atoms: _479  and  _480
REMARK  200  A    between atoms: _485  and  _487
REMARK  201  A    between atoms: _487  and  _488
REMARK  202  A    between atoms: _487  and  _490
REMARK  203  A    between atoms: _490  and  _491
REMARK  204  A    between atoms: _495  and  _496
REMARK  205  A    between atoms: _501  and  _503
REMARK  206  A    between atoms: _503  and  _504
REMARK  207  A    between atoms: _503  and  _506
REMARK  208  A    between atoms: _509  and  _511
REMARK  209  A    between atoms: _511  and  _512
REMARK  210  A    between atoms: _511  and  _514
REMARK  211  A    between atoms: _514  and  _515
REMARK  212  A    between atoms: _520  and  _522
REMARK  213  A    between atoms: _522  and  _523
REMARK  214  A    between atoms: _522  and  _525
REMARK  215  A    between atoms: _525  and  _526
REMARK  216  A    between atoms: _529  and  _531
REMARK  217  A    between atoms: _531  and  _532
REMARK  218  A    between atoms: _531  and  _534
REMARK  219  A    between atoms: _534  and  _535
REMARK  220  A    between atoms: _538  and  _540
REMARK  221  A    between atoms: _540  and  _541
REMARK  222  A    between atoms: _543  and  _545
REMARK  223  A    between atoms: _545  and  _546
REMARK  224  A    between atoms: _545  and  _548
REMARK  225  A    between atoms: _548  and  _549
REMARK  226  A    between atoms: _549  and  _550
REMARK  227  A    between atoms: _550  and  _551
REMARK  228  A    between atoms: _560  and  _562
REMARK  229  A    between atoms: _562  and  _563
REMARK  230  A    between atoms: _562  and  _565
REMARK  231  A    between atoms: _565  and  _566
REMARK                            x       y       z     vdW  Elec       q    Type
REMARK                         _______ _______ _______ _____ _____    ______ ____
ROOT
ATOM      1  O   HOH     1      20.535  21.462  15.096  0.00  0.00    +0.000 OA
ENDROOT
TORSDOF 0
REMARK  Name = ../refined-set-2016/2q5k/2q5k_pocket.pdb
REMARK  231 active torsions:
REMARK  status: ('A' for Active; 'I' for Inactive)
REMARK    1  A    between atoms: _1  and  _3
REMARK    2  A    between atoms: _3  and  _4
REMARK    3  A    between atoms: _3  and  _6
REMARK    4  A    between atoms: _6  and  _7
REMARK    5  A    between atoms: _7  and  _8
REMARK    6  A    between atoms: _8  and  _9
REMARK    7  A    between atoms: _18  and  _20
REMARK    8  A    between atoms: _20  and  _21
REMARK    9  A    between atoms: _20  and  _23
REMARK   10  A    between atoms: _23  and  _24
REMARK   11  A    between atoms: _27  and  _29
REMARK   12  A    between atoms: _29  and  _30
REMARK   13  A    between atoms: _29  and  _32
REMARK   14  A    between atoms: _32  and  _33
REMARK   15  A    between atoms: _36  and  _38
REMARK   16  A    between atoms: _38  and  _39
REMARK   17  A    between atoms: _38  and  _41
REMARK   18  A    between atoms: _41  and  _42
REMARK   19  A    between atoms: _45  and  _47
REMARK   20  A    between atoms: _47  and  _48
REMARK   21  A    between atoms: _47  and  _50
REMARK   22  A    between atoms: _50  and  _51
REMARK   23  A    between atoms: _54  and  _56
REMARK   24  A    between atoms: _56  and  _57
REMARK   25  A    between atoms: _59  and  _61
REMARK   26  A    between atoms: _61  and  _62
REMARK   27  A    between atoms: _65  and  _67
REMARK   28  A    between atoms: _67  and  _68
REMARK   29  A    between atoms: _67  and  _70
REMARK   30  A    between atoms: _70  and  _71
REMARK   31  A    between atoms: _74  and  _76
REMARK   32  A    between atoms: _76  and  _77
REMARK   33  A    between atoms: _76  and  _79
REMARK   34  A    between atoms: _79  and  _80
REMARK   35  A    between atoms: _83  and  _85
REMARK   36  A    between atoms: _85  and  _86
REMARK   37  A    between atoms: _85  and  _88
REMARK   38  A    between atoms: _88  and  _89
REMARK   39  A    between atoms: _92  and  _94
REMARK   40  A    between atoms: _94  and  _95
REMARK   41  A    between atoms: _94  and  _97
REMARK   42  A    between atoms: _100  and  _102
REMARK   43  A    between atoms: _102  and  _103
REMARK   44  A    between atoms: _102  and  _105
REMARK   45  A    between atoms: _105  and  _106
REMARK   46  A    between atoms: _106  and  _107
REMARK   47  A    between atoms: _107  and  _108
REMARK   48  A    between atoms: _108  and  _109
REMARK   49  A    between atoms: _113  and  _115
REMARK   50  A    between atoms: _115  and  _116
REMARK   51  A    between atoms: _115  and  _118
REMARK   52  A    between atoms: _118  and  _119
REMARK   53  A    between atoms: _119  and  _120
REMARK   54  A    between atoms: _122  and  _124
REMARK   55  A    between atoms: _124  and  _125
REMARK   56  A    between atoms: _124  and  _127
REMARK   57  A    between atoms: _127  and  _128
REMARK   58  A    between atoms: _131  and  _133
REMARK   59  A    between atoms: _133  and  _134
REMARK   60  A    between atoms: _136  and  _138
REMARK   61  A    between atoms: _138  and  _139
REMARK   62  A    between atoms: _141  and  _143
REMARK   63  A    between atoms: _143  and  _144
REMARK   64  A    between atoms: _143  and  _146
REMARK   65  A    between atoms: _146  and  _147
REMARK   66  A    between atoms: _150  and  _152
REMARK   67  A    between atoms: _152  and  _153
REMARK   68  A    between atoms: _155  and  _157
REMARK   69  A    between atoms: _157  and  _158
REMARK   70  A    between atoms: _160  and  _162
REMARK   71  A    between atoms: _162  and  _163
REMARK   72  A    between atoms: _162  and  _165
REMARK   73  A    between atoms: _165  and  _166
REMARK   74  A    between atoms: _172  and  _174
REMARK   75  A    between atoms: _174  and  _175
REMARK   76  A    between atoms: _174  and  _177
REMARK   77  A    between atoms: _177  and  _178
REMARK   78  A    between atoms: _181  and  _183
REMARK   79  A    between atoms: _183  and  _184
REMARK   80  A    between atoms: _183  and  _186
REMARK   81  A    between atoms: _186  and  _187
REMARK   82  A    between atoms: _191  and  _192
REMARK   83  A    between atoms: _197  and  _199
REMARK   84  A    between atoms: _199  and  _200
REMARK   85  A    between atoms: _199  and  _202
REMARK   86  A    between atoms: _202  and  _203
REMARK   87  A    between atoms: _207  and  _208
REMARK   88  A    between atoms: _213  and  _215
REMARK   89  A    between atoms: _215  and  _216
REMARK   90  A    between atoms: _215  and  _218
REMARK   91  A    between atoms: _221  and  _223
REMARK   92  A    between atoms: _223  and  _224
REMARK   93  A    between atoms: _223  and  _226
REMARK   94  A    between atoms: _226  and  _227
REMARK   95  A    between atoms: _232  and  _234
REMARK   96  A    between atoms: _234  and  _235
REMARK   97  A    between atoms: _234  and  _237
REMARK   98  A    between atoms: _237  and  _238
REMARK   99  A    between atoms: _241  and  _243
REMARK  100  A    between atoms: _243  and  _244
REMARK  101  A    between atoms: _243  and  _246
REMARK  102  A    between atoms: _246  and  _247
REMARK  103  A    between atoms: _250  and  _252
REMARK  104  A    between atoms: _252  and  _253
REMARK  105  A    between atoms: _255  and  _257
REMARK  106  A    between atoms: _257  and  _258
REMARK  107  A    between atoms: _257  and  _260
REMARK  108  A    between atoms: _260  and  _261
REMARK  109  A    between atoms: _261  and  _262
REMARK  110  A    between atoms: _262  and  _263
REMARK  111  A    between atoms: _272  and  _274
REMARK  112  A    between atoms: _274  and  _275
REMARK  113  A    between atoms: _274  and  _277
REMARK  114  A    between atoms: _277  and  _278
REMARK  115  A    between atoms: _278  and  _279
REMARK  116  A    between atoms: _279  and  _280
REMARK  117  A    between atoms: _289  and  _291
REMARK  118  A    between atoms: _291  and  _292
REMARK  119  A    between atoms: _291  and  _294
REMARK  120  A    between atoms: _294  and  _295
REMARK  121  A    between atoms: _298  and  _300
REMARK  122  A    between atoms: _300  and  _301
REMARK  123  A    between atoms: _300  and  _303
REMARK  124  A    between atoms: _303  and  _304
REMARK  125  A    between atoms: _307  and  _309
REMARK  126  A    between atoms: _309  and  _310
REMARK  127  A    between atoms: _309  and  _312
REMARK  128  A    between atoms: _312  and  _313
REMARK  129  A    between atoms: _316  and  _318
REMARK  130  A    between atoms: _318  and  _319
REMARK  131  A    between atoms: _318  and  _321
REMARK  132  A    between atoms: _321  and  _322
REMARK  133  A    between atoms: _325  and  _327
REMARK  134  A    between atoms: _327  and  _328
REMARK  135  A    between atoms: _330  and  _332
REMARK  136  A    between atoms: _332  and  _333
REMARK  137  A    between atoms: _336  and  _338
REMARK  138  A    between atoms: _338  and  _339
REMARK  139  A    between atoms: _338  and  _341
REMARK  140  A    between atoms: _341  and  _342
REMARK  141  A    between atoms: _345  and  _347
REMARK  142  A    between atoms: _347  and  _348
REMARK  143  A    between atoms: _347  and  _350
REMARK  144  A    between atoms: _350  and  _351
REMARK  145  A    between atoms: _354  and  _356
REMARK  146  A    between atoms: _356  and  _357
REMARK  147  A    between atoms: _356  and  _359
REMARK  148  A    between atoms: _359  and  _360
REMARK  149  A    between atoms: _363  and  _365
REMARK  150  A    between atoms: _365  and  _366
REMARK  151  A    between atoms: _365  and  _368
REMARK  152  A    between atoms: _371  and  _373
REMARK  153  A    between atoms: _373  and  _374
REMARK  154  A    between atoms: _373  and  _376
REMARK  155  A    between atoms: _376  and  _377
REMARK  156  A    between atoms: _380  and  _382
REMARK  157  A    between atoms: _382  and  _383
REMARK  158  A    between atoms: _382  and  _385
REMARK  159  A    between atoms: _385  and  _386
REMARK  160  A    between atoms: _386  and  _387
REMARK  161  A    between atoms: _387  and  _388
REMARK  162  A    between atoms: _388  and  _389
REMARK  163  A    between atoms: _393  and  _395
REMARK  164  A    between atoms: _395  and  _396
REMARK  165  A    between atoms: _395  and  _398
REMARK  166  A    between atoms: _398  and  _399
REMARK  167  A    between atoms: _399  and  _400
REMARK  168  A    between atoms: _402  and  _404
REMARK  169  A    between atoms: _404  and  _405
REMARK  170  A    between atoms: _404  and  _407
REMARK  171  A    between atoms: _407  and  _408
REMARK  172  A    between atoms: _411  and  _413
REMARK  173  A    between atoms: _413  and  _414
REMARK  174  A    between atoms: _416  and  _418
REMARK  175  A    between atoms: _418  and  _419
REMARK  176  A    between atoms: _421  and  _423
REMARK  177  A    between atoms: _423  and  _424
REMARK  178  A    between atoms: _423  and  _426
REMARK  179  A    between atoms: _426  and  _427
REMARK  180  A    between atoms: _430  and  _432
REMARK  181  A    between atoms: _432  and  _433
REMARK  182  A    between atoms: _435  and  _437
REMARK  183  A    between atoms: _437  and  _438
REMARK  184  A    between atoms: _440  and  _442
REMARK  185  A    between atoms: _442  and  _443
REMARK  186  A    between atoms: _442  and  _445
REMARK  187  A    between atoms: _445  and  _446
REMARK  188  A    between atoms: _452  and  _454
REMARK  189  A    between atoms: _454  and  _455
REMARK  190  A    between atoms: _454  and  _457
REMARK  191  A    between atoms: _457  and  _458
REMARK  192  A    between atoms: _461  and  _463
REMARK  193  A    between atoms: _463  and  _464
REMARK  194  A    between atoms: _463  and  _466
REMARK  195  A    between atoms: _469  and  _471
REMARK  196  A    between atoms: _471  and  _472
REMARK  197  A    between atoms: _471  and  _474
REMARK  198  A    between atoms: _474  and  _475
REMARK  199  A    between atoms: _479  and  _480
REMARK  200  A    between atoms: _485  and  _487
REMARK  201  A    between atoms: _487  and  _488
REMARK  202  A    between atoms: _487  and  _490
REMARK  203  A    between atoms: _490  and  _491
REMARK  204  A    between atoms: _495  and  _496
REMARK  205  A    between atoms: _501  and  _503
REMARK  206  A    between atoms: _503  and  _504
REMARK  207  A    between atoms: _503  and  _506
REMARK  208  A    between atoms: _509  and  _511
REMARK  209  A    between atoms: _511  and  _512
REMARK  210  A    between atoms: _511  and  _514
REMARK  211  A    between atoms: _514  and  _515
REMARK  212  A    between atoms: _520  and  _522
REMARK  213  A    between atoms: _522  and  _523
REMARK  214  A    between atoms: _522  and  _525
REMARK  215  A    between atoms: _525  and  _526
REMARK  216  A    between atoms: _529  and  _531
REMARK  217  A    between atoms: _531  and  _532
REMARK  218  A    between atoms: _531  and  _534
REMARK  219  A    between atoms: _534  and  _535
REMARK  220  A    between atoms: _538  and  _540
REMARK  221  A    between atoms: _540  and  _541
REMARK  222  A    between atoms: _543  and  _545
REMARK  223  A    between atoms: _545  and  _546
REMARK  224  A    between atoms: _545  and  _548
REMARK  225  A    between atoms: _548  and  _549
REMARK  226  A    between atoms: _549  and  _550
REMARK  227  A    between atoms: _550  and  _551
REMARK  228  A    between atoms: _560  and  _562
REMARK  229  A    between atoms: _562  and  _563
REMARK  230  A    between atoms: _562  and  _565
REMARK  231  A    between atoms: _565  and  _566
REMARK                            x       y       z     vdW  Elec       q    Type
REMARK                         _______ _______ _______ _____ _____    ______ ____
ROOT
ATOM      1  O   HOH     1      20.215  31.138  10.496  0.00  0.00    +0.000 OA
ENDROOT
TORSDOF 0
REMARK  Name = ../refined-set-2016/2q5k/2q5k_pocket.pdb
REMARK  231 active torsions:
REMARK  status: ('A' for Active; 'I' for Inactive)
REMARK    1  A    between atoms: _1  and  _3
REMARK    2  A    between atoms: _3  and  _4
REMARK    3  A    between atoms: _3  and  _6
REMARK    4  A    between atoms: _6  and  _7
REMARK    5  A    between atoms: _7  and  _8
REMARK    6  A    between atoms: _8  and  _9
REMARK    7  A    between atoms: _18  and  _20
REMARK    8  A    between atoms: _20  and  _21
REMARK    9  A    between atoms: _20  and  _23
REMARK   10  A    between atoms: _23  and  _24
REMARK   11  A    between atoms: _27  and  _29
REMARK   12  A    between atoms: _29  and  _30
REMARK   13  A    between atoms: _29  and  _32
REMARK   14  A    between atoms: _32  and  _33
REMARK   15  A    between atoms: _36  and  _38
REMARK   16  A    between atoms: _38  and  _39
REMARK   17  A    between atoms: _38  and  _41
REMARK   18  A    between atoms: _41  and  _42
REMARK   19  A    between atoms: _45  and  _47
REMARK   20  A    between atoms: _47  and  _48
REMARK   21  A    between atoms: _47  and  _50
REMARK   22  A    between atoms: _50  and  _51
REMARK   23  A    between atoms: _54  and  _56
REMARK   24  A    between atoms: _56  and  _57
REMARK   25  A    between atoms: _59  and  _61
REMARK   26  A    between atoms: _61  and  _62
REMARK   27  A    between atoms: _65  and  _67
REMARK   28  A    between atoms: _67  and  _68
REMARK   29  A    between atoms: _67  and  _70
REMARK   30  A    between atoms: _70  and  _71
REMARK   31  A    between atoms: _74  and  _76
REMARK   32  A    between atoms: _76  and  _77
REMARK   33  A    between atoms: _76  and  _79
REMARK   34  A    between atoms: _79  and  _80
REMARK   35  A    between atoms: _83  and  _85
REMARK   36  A    between atoms: _85  and  _86
REMARK   37  A    between atoms: _85  and  _88
REMARK   38  A    between atoms: _88  and  _89
REMARK   39  A    between atoms: _92  and  _94
REMARK   40  A    between atoms: _94  and  _95
REMARK   41  A    between atoms: _94  and  _97
REMARK   42  A    between atoms: _100  and  _102
REMARK   43  A    between atoms: _102  and  _103
REMARK   44  A    between atoms: _102  and  _105
REMARK   45  A    between atoms: _105  and  _106
REMARK   46  A    between atoms: _106  and  _107
REMARK   47  A    between atoms: _107  and  _108
REMARK   48  A    between atoms: _108  and  _109
REMARK   49  A    between atoms: _113  and  _115
REMARK   50  A    between atoms: _115  and  _116
REMARK   51  A    between atoms: _115  and  _118
REMARK   52  A    between atoms: _118  and  _119
REMARK   53  A    between atoms: _119  and  _120
REMARK   54  A    between atoms: _122  and  _124
REMARK   55  A    between atoms: _124  and  _125
REMARK   56  A    between atoms: _124  and  _127
REMARK   57  A    between atoms: _127  and  _128
REMARK   58  A    between atoms: _131  and  _133
REMARK   59  A    between atoms: _133  and  _134
REMARK   60  A    between atoms: _136  and  _138
REMARK   61  A    between atoms: _138  and  _139
REMARK   62  A    between atoms: _141  and  _143
REMARK   63  A    between atoms: _143  and  _144
REMARK   64  A    between atoms: _143  and  _146
REMARK   65  A    between atoms: _146  and  _147
REMARK   66  A    between atoms: _150  and  _152
REMARK   67  A    between atoms: _152  and  _153
REMARK   68  A    between atoms: _155  and  _157
REMARK   69  A    between atoms: _157  and  _158
REMARK   70  A    between atoms: _160  and  _162
REMARK   71  A    between atoms: _162  and  _163
REMARK   72  A    between atoms: _162  and  _165
REMARK   73  A    between atoms: _165  and  _166
REMARK   74  A    between atoms: _172  and  _174
REMARK   75  A    between atoms: _174  and  _175
REMARK   76  A    between atoms: _174  and  _177
REMARK   77  A    between atoms: _177  and  _178
REMARK   78  A    between atoms: _181  and  _183
REMARK   79  A    between atoms: _183  and  _184
REMARK   80  A    between atoms: _183  and  _186
REMARK   81  A    between atoms: _186  and  _187
REMARK   82  A    between atoms: _191  and  _192
REMARK   83  A    between atoms: _197  and  _199
REMARK   84  A    between atoms: _199  and  _200
REMARK   85  A    between atoms: _199  and  _202
REMARK   86  A    between atoms: _202  and  _203
REMARK   87  A    between atoms: _207  and  _208
REMARK   88  A    between atoms: _213  and  _215
REMARK   89  A    between atoms: _215  and  _216
REMARK   90  A    between atoms: _215  and  _218
REMARK   91  A    between atoms: _221  and  _223
REMARK   92  A    between atoms: _223  and  _224
REMARK   93  A    between atoms: _223  and  _226
REMARK   94  A    between atoms: _226  and  _227
REMARK   95  A    between atoms: _232  and  _234
REMARK   96  A    between atoms: _234  and  _235
REMARK   97  A    between atoms: _234  and  _237
REMARK   98  A    between atoms: _237  and  _238
REMARK   99  A    between atoms: _241  and  _243
REMARK  100  A    between atoms: _243  and  _244
REMARK  101  A    between atoms: _243  and  _246
REMARK  102  A    between atoms: _246  and  _247
REMARK  103  A    between atoms: _250  and  _252
REMARK  104  A    between atoms: _252  and  _253
REMARK  105  A    between atoms: _255  and  _257
REMARK  106  A    between atoms: _257  and  _258
REMARK  107  A    between atoms: _257  and  _260
REMARK  108  A    between atoms: _260  and  _261
REMARK  109  A    between atoms: _261  and  _262
REMARK  110  A    between atoms: _262  and  _263
REMARK  111  A    between atoms: _272  and  _274
REMARK  112  A    between atoms: _274  and  _275
REMARK  113  A    between atoms: _274  and  _277
REMARK  114  A    between atoms: _277  and  _278
REMARK  115  A    between atoms: _278  and  _279
REMARK  116  A    between atoms: _279  and  _280
REMARK  117  A    between atoms: _289  and  _291
REMARK  118  A    between atoms: _291  and  _292
REMARK  119  A    between atoms: _291  and  _294
REMARK  120  A    between atoms: _294  and  _295
REMARK  121  A    between atoms: _298  and  _300
REMARK  122  A    between atoms: _300  and  _301
REMARK  123  A    between atoms: _300  and  _303
REMARK  124  A    between atoms: _303  and  _304
REMARK  125  A    between atoms: _307  and  _309
REMARK  126  A    between atoms: _309  and  _310
REMARK  127  A    between atoms: _309  and  _312
REMARK  128  A    between atoms: _312  and  _313
REMARK  129  A    between atoms: _316  and  _318
REMARK  130  A    between atoms: _318  and  _319
REMARK  131  A    between atoms: _318  and  _321
REMARK  132  A    between atoms: _321  and  _322
REMARK  133  A    between atoms: _325  and  _327
REMARK  134  A    between atoms: _327  and  _328
REMARK  135  A    between atoms: _330  and  _332
REMARK  136  A    between atoms: _332  and  _333
REMARK  137  A    between atoms: _336  and  _338
REMARK  138  A    between atoms: _338  and  _339
REMARK  139  A    between atoms: _338  and  _341
REMARK  140  A    between atoms: _341  and  _342
REMARK  141  A    between atoms: _345  and  _347
REMARK  142  A    between atoms: _347  and  _348
REMARK  143  A    between atoms: _347  and  _350
REMARK  144  A    between atoms: _350  and  _351
REMARK  145  A    between atoms: _354  and  _356
REMARK  146  A    between atoms: _356  and  _357
REMARK  147  A    between atoms: _356  and  _359
REMARK  148  A    between atoms: _359  and  _360
REMARK  149  A    between atoms: _363  and  _365
REMARK  150  A    between atoms: _365  and  _366
REMARK  151  A    between atoms: _365  and  _368
REMARK  152  A    between atoms: _371  and  _373
REMARK  153  A    between atoms: _373  and  _374
REMARK  154  A    between atoms: _373  and  _376
REMARK  155  A    between atoms: _376  and  _377
REMARK  156  A    between atoms: _380  and  _382
REMARK  157  A    between atoms: _382  and  _383
REMARK  158  A    between atoms: _382  and  _385
REMARK  159  A    between atoms: _385  and  _386
REMARK  160  A    between atoms: _386  and  _387
REMARK  161  A    between atoms: _387  and  _388
REMARK  162  A    between atoms: _388  and  _389
REMARK  163  A    between atoms: _393  and  _395
REMARK  164  A    between atoms: _395  and  _396
REMARK  165  A    between atoms: _395  and  _398
REMARK  166  A    between atoms: _398  and  _399
REMARK  167  A    between atoms: _399  and  _400
REMARK  168  A    between atoms: _402  and  _404
REMARK  169  A    between atoms: _404  and  _405
REMARK  170  A    between atoms: _404  and  _407
REMARK  171  A    between atoms: _407  and  _408
REMARK  172  A    between atoms: _411  and  _413
REMARK  173  A    between atoms: _413  and  _414
REMARK  174  A    between atoms: _416  and  _418
REMARK  175  A    between atoms: _418  and  _419
REMARK  176  A    between atoms: _421  and  _423
REMARK  177  A    between atoms: _423  and  _424
REMARK  178  A    between atoms: _423  and  _426
REMARK  179  A    between atoms: _426  and  _427
REMARK  180  A    between atoms: _430  and  _432
REMARK  181  A    between atoms: _432  and  _433
REMARK  182  A    between atoms: _435  and  _437
REMARK  183  A    between atoms: _437  and  _438
REMARK  184  A    between atoms: _440  and  _442
REMARK  185  A    between atoms: _442  and  _443
REMARK  186  A    between atoms: _442  and  _445
REMARK  187  A    between atoms: _445  and  _446
REMARK  188  A    between atoms: _452  and  _454
REMARK  189  A    between atoms: _454  and  _455
REMARK  190  A    between atoms: _454  and  _457
REMARK  191  A    between atoms: _457  and  _458
REMARK  192  A    between atoms: _461  and  _463
REMARK  193  A    between atoms: _463  and  _464
REMARK  194  A    between atoms: _463  and  _466
REMARK  195  A    between atoms: _469  and  _471
REMARK  196  A    between atoms: _471  and  _472
REMARK  197  A    between atoms: _471  and  _474
REMARK  198  A    between atoms: _474  and  _475
REMARK  199  A    between atoms: _479  and  _480
REMARK  200  A    between atoms: _485  and  _487
REMARK  201  A    between atoms: _487  and  _488
REMARK  202  A    between atoms: _487  and  _490
REMARK  203  A    between atoms: _490  and  _491
REMARK  204  A    between atoms: _495  and  _496
REMARK  205  A    between atoms: _501  and  _503
REMARK  206  A    between atoms: _503  and  _504
REMARK  207  A    between atoms: _503  and  _506
REMARK  208  A    between atoms: _509  and  _511
REMARK  209  A    between atoms: _511  and  _512
REMARK  210  A    between atoms: _511  and  _514
REMARK  211  A    between atoms: _514  and  _515
REMARK  212  A    between atoms: _520  and  _522
REMARK  213  A    between atoms: _522  and  _523
REMARK  214  A    between atoms: _522  and  _525
REMARK  215  A    between atoms: _525  and  _526
REMARK  216  A    between atoms: _529  and  _531
REMARK  217  A    between atoms: _531  and  _532
REMARK  218  A    between atoms: _531  and  _534
REMARK  219  A    between atoms: _534  and  _535
REMARK  220  A    between atoms: _538  and  _540
REMARK  221  A    between atoms: _540  and  _541
REMARK  222  A    between atoms: _543  and  _545
REMARK  223  A    between atoms: _545  and  _546
REMARK  224  A    between atoms: _545  and  _548
REMARK  225  A    between atoms: _548  and  _549
REMARK  226  A    between atoms: _549  and  _550
REMARK  227  A    between atoms: _550  and  _551
REMARK  228  A    between atoms: _560  and  _562
REMARK  229  A    between atoms: _562  and  _563
REMARK  230  A    between atoms: _562  and  _565
REMARK  231  A    between atoms: _565  and  _566
REMARK                            x       y       z     vdW  Elec       q    Type
REMARK                         _______ _______ _______ _____ _____    ______ ____
ROOT
ATOM      1  O   HOH     1      20.256  41.032  19.205  0.00  0.00    +0.000 OA
ENDROOT
TORSDOF 0
REMARK  Name = ../refined-set-2016/2q5k/2q5k_pocket.pdb
REMARK  231 active torsions:
REMARK  status: ('A' for Active; 'I' for Inactive)
REMARK    1  A    between atoms: _1  and  _3
REMARK    2  A    between atoms: _3  and  _4
REMARK    3  A    between atoms: _3  and  _6
REMARK    4  A    between atoms: _6  and  _7
REMARK    5  A    between atoms: _7  and  _8
REMARK    6  A    between atoms: _8  and  _9
REMARK    7  A    between atoms: _18  and  _20
REMARK    8  A    between atoms: _20  and  _21
REMARK    9  A    between atoms: _20  and  _23
REMARK   10  A    between atoms: _23  and  _24
REMARK   11  A    between atoms: _27  and  _29
REMARK   12  A    between atoms: _29  and  _30
REMARK   13  A    between atoms: _29  and  _32
REMARK   14  A    between atoms: _32  and  _33
REMARK   15  A    between atoms: _36  and  _38
REMARK   16  A    between atoms: _38  and  _39
REMARK   17  A    between atoms: _38  and  _41
REMARK   18  A    between atoms: _41  and  _42
REMARK   19  A    between atoms: _45  and  _47
REMARK   20  A    between atoms: _47  and  _48
REMARK   21  A    between atoms: _47  and  _50
REMARK   22  A    between atoms: _50  and  _51
REMARK   23  A    between atoms: _54  and  _56
REMARK   24  A    between atoms: _56  and  _57
REMARK   25  A    between atoms: _59  and  _61
REMARK   26  A    between atoms: _61  and  _62
REMARK   27  A    between atoms: _65  and  _67
REMARK   28  A    between atoms: _67  and  _68
REMARK   29  A    between atoms: _67  and  _70
REMARK   30  A    between atoms: _70  and  _71
REMARK   31  A    between atoms: _74  and  _76
REMARK   32  A    between atoms: _76  and  _77
REMARK   33  A    between atoms: _76  and  _79
REMARK   34  A    between atoms: _79  and  _80
REMARK   35  A    between atoms: _83  and  _85
REMARK   36  A    between atoms: _85  and  _86
REMARK   37  A    between atoms: _85  and  _88
REMARK   38  A    between atoms: _88  and  _89
REMARK   39  A    between atoms: _92  and  _94
REMARK   40  A    between atoms: _94  and  _95
REMARK   41  A    between atoms: _94  and  _97
REMARK   42  A    between atoms: _100  and  _102
REMARK   43  A    between atoms: _102  and  _103
REMARK   44  A    between atoms: _102  and  _105
REMARK   45  A    between atoms: _105  and  _106
REMARK   46  A    between atoms: _106  and  _107
REMARK   47  A    between atoms: _107  and  _108
REMARK   48  A    between atoms: _108  and  _109
REMARK   49  A    between atoms: _113  and  _115
REMARK   50  A    between atoms: _115  and  _116
REMARK   51  A    between atoms: _115  and  _118
REMARK   52  A    between atoms: _118  and  _119
REMARK   53  A    between atoms: _119  and  _120
REMARK   54  A    between atoms: _122  and  _124
REMARK   55  A    between atoms: _124  and  _125
REMARK   56  A    between atoms: _124  and  _127
REMARK   57  A    between atoms: _127  and  _128
REMARK   58  A    between atoms: _131  and  _133
REMARK   59  A    between atoms: _133  and  _134
REMARK   60  A    between atoms: _136  and  _138
REMARK   61  A    between atoms: _138  and  _139
REMARK   62  A    between atoms: _141  and  _143
REMARK   63  A    between atoms: _143  and  _144
REMARK   64  A    between atoms: _143  and  _146
REMARK   65  A    between atoms: _146  and  _147
REMARK   66  A    between atoms: _150  and  _152
REMARK   67  A    between atoms: _152  and  _153
REMARK   68  A    between atoms: _155  and  _157
REMARK   69  A    between atoms: _157  and  _158
REMARK   70  A    between atoms: _160  and  _162
REMARK   71  A    between atoms: _162  and  _163
REMARK   72  A    between atoms: _162  and  _165
REMARK   73  A    between atoms: _165  and  _166
REMARK   74  A    between atoms: _172  and  _174
REMARK   75  A    between atoms: _174  and  _175
REMARK   76  A    between atoms: _174  and  _177
REMARK   77  A    between atoms: _177  and  _178
REMARK   78  A    between atoms: _181  and  _183
REMARK   79  A    between atoms: _183  and  _184
REMARK   80  A    between atoms: _183  and  _186
REMARK   81  A    between atoms: _186  and  _187
REMARK   82  A    between atoms: _191  and  _192
REMARK   83  A    between atoms: _197  and  _199
REMARK   84  A    between atoms: _199  and  _200
REMARK   85  A    between atoms: _199  and  _202
REMARK   86  A    between atoms: _202  and  _203
REMARK   87  A    between atoms: _207  and  _208
REMARK   88  A    between atoms: _213  and  _215
REMARK   89  A    between atoms: _215  and  _216
REMARK   90  A    between atoms: _215  and  _218
REMARK   91  A    between atoms: _221  and  _223
REMARK   92  A    between atoms: _223  and  _224
REMARK   93  A    between atoms: _223  and  _226
REMARK   94  A    between atoms: _226  and  _227
REMARK   95  A    between atoms: _232  and  _234
REMARK   96  A    between atoms: _234  and  _235
REMARK   97  A    between atoms: _234  and  _237
REMARK   98  A    between atoms: _237  and  _238
REMARK   99  A    between atoms: _241  and  _243
REMARK  100  A    between atoms: _243  and  _244
REMARK  101  A    between atoms: _243  and  _246
REMARK  102  A    between atoms: _246  and  _247
REMARK  103  A    between atoms: _250  and  _252
REMARK  104  A    between atoms: _252  and  _253
REMARK  105  A    between atoms: _255  and  _257
REMARK  106  A    between atoms: _257  and  _258
REMARK  107  A    between atoms: _257  and  _260
REMARK  108  A    between atoms: _260  and  _261
REMARK  109  A    between atoms: _261  and  _262
REMARK  110  A    between atoms: _262  and  _263
REMARK  111  A    between atoms: _272  and  _274
REMARK  112  A    between atoms: _274  and  _275
REMARK  113  A    between atoms: _274  and  _277
REMARK  114  A    between atoms: _277  and  _278
REMARK  115  A    between atoms: _278  and  _279
REMARK  116  A    between atoms: _279  and  _280
REMARK  117  A    between atoms: _289  and  _291
REMARK  118  A    between atoms: _291  and  _292
REMARK  119  A    between atoms: _291  and  _294
REMARK  120  A    between atoms: _294  and  _295
REMARK  121  A    between atoms: _298  and  _300
REMARK  122  A    between atoms: _300  and  _301
REMARK  123  A    between atoms: _300  and  _303
REMARK  124  A    between atoms: _303  and  _304
REMARK  125  A    between atoms: _307  and  _309
REMARK  126  A    between atoms: _309  and  _310
REMARK  127  A    between atoms: _309  and  _312
REMARK  128  A    between atoms: _312  and  _313
REMARK  129  A    between atoms: _316  and  _318
REMARK  130  A    between atoms: _318  and  _319
REMARK  131  A    between atoms: _318  and  _321
REMARK  132  A    between atoms: _321  and  _322
REMARK  133  A    between atoms: _325  and  _327
REMARK  134  A    between atoms: _327  and  _328
REMARK  135  A    between atoms: _330  and  _332
REMARK  136  A    between atoms: _332  and  _333
REMARK  137  A    between atoms: _336  and  _338
REMARK  138  A    between atoms: _338  and  _339
REMARK  139  A    between atoms: _338  and  _341
REMARK  140  A    between atoms: _341  and  _342
REMARK  141  A    between atoms: _345  and  _347
REMARK  142  A    between atoms: _347  and  _348
REMARK  143  A    between atoms: _347  and  _350
REMARK  144  A    between atoms: _350  and  _351
REMARK  145  A    between atoms: _354  and  _356
REMARK  146  A    between atoms: _356  and  _357
REMARK  147  A    between atoms: _356  and  _359
REMARK  148  A    between atoms: _359  and  _360
REMARK  149  A    between atoms: _363  and  _365
REMARK  150  A    between atoms: _365  and  _366
REMARK  151  A    between atoms: _365  and  _368
REMARK  152  A    between atoms: _371  and  _373
REMARK  153  A    between atoms: _373  and  _374
REMARK  154  A    between atoms: _373  and  _376
REMARK  155  A    between atoms: _376  and  _377
REMARK  156  A    between atoms: _380  and  _382
REMARK  157  A    between atoms: _382  and  _383
REMARK  158  A    between atoms: _382  and  _385
REMARK  159  A    between atoms: _385  and  _386
REMARK  160  A    between atoms: _386  and  _387
REMARK  161  A    between atoms: _387  and  _388
REMARK  162  A    between atoms: _388  and  _389
REMARK  163  A    between atoms: _393  and  _395
REMARK  164  A    between atoms: _395  and  _396
REMARK  165  A    between atoms: _395  and  _398
REMARK  166  A    between atoms: _398  and  _399
REMARK  167  A    between atoms: _399  and  _400
REMARK  168  A    between atoms: _402  and  _404
REMARK  169  A    between atoms: _404  and  _405
REMARK  170  A    between atoms: _404  and  _407
REMARK  171  A    between atoms: _407  and  _408
REMARK  172  A    between atoms: _411  and  _413
REMARK  173  A    between atoms: _413  and  _414
REMARK  174  A    between atoms: _416  and  _418
REMARK  175  A    between atoms: _418  and  _419
REMARK  176  A    between atoms: _421  and  _423
REMARK  177  A    between atoms: _423  and  _424
REMARK  178  A    between atoms: _423  and  _426
REMARK  179  A    between atoms: _426  and  _427
REMARK  180  A    between atoms: _430  and  _432
REMARK  181  A    between atoms: _432  and  _433
REMARK  182  A    between atoms: _435  and  _437
REMARK  183  A    between atoms: _437  and  _438
REMARK  184  A    between atoms: _440  and  _442
REMARK  185  A    between atoms: _442  and  _443
REMARK  186  A    between atoms: _442  and  _445
REMARK  187  A    between atoms: _445  and  _446
REMARK  188  A    between atoms: _452  and  _454
REMARK  189  A    between atoms: _454  and  _455
REMARK  190  A    between atoms: _454  and  _457
REMARK  191  A    between atoms: _457  and  _458
REMARK  192  A    between atoms: _461  and  _463
REMARK  193  A    between atoms: _463  and  _464
REMARK  194  A    between atoms: _463  and  _466
REMARK  195  A    between atoms: _469  and  _471
REMARK  196  A    between atoms: _471  and  _472
REMARK  197  A    between atoms: _471  and  _474
REMARK  198  A    between atoms: _474  and  _475
REMARK  199  A    between atoms: _479  and  _480
REMARK  200  A    between atoms: _485  and  _487
REMARK  201  A    between atoms: _487  and  _488
REMARK  202  A    between atoms: _487  and  _490
REMARK  203  A    between atoms: _490  and  _491
REMARK  204  A    between atoms: _495  and  _496
REMARK  205  A    between atoms: _501  and  _503
REMARK  206  A    between atoms: _503  and  _504
REMARK  207  A    between atoms: _503  and  _506
REMARK  208  A    between atoms: _509  and  _511
REMARK  209  A    between atoms: _511  and  _512
REMARK  210  A    between atoms: _511  and  _514
REMARK  211  A    between atoms: _514  and  _515
REMARK  212  A    between atoms: _520  and  _522
REMARK  213  A    between atoms: _522  and  _523
REMARK  214  A    between atoms: _522  and  _525
REMARK  215  A    between atoms: _525  and  _526
REMARK  216  A    between atoms: _529  and  _531
REMARK  217  A    between atoms: _531  and  _532
REMARK  218  A    between atoms: _531  and  _534
REMARK  219  A    between atoms: _534  and  _535
REMARK  220  A    between atoms: _538  and  _540
REMARK  221  A    between atoms: _540  and  _541
REMARK  222  A    between atoms: _543  and  _545
REMARK  223  A    between atoms: _545  and  _546
REMARK  224  A    between atoms: _545  and  _548
REMARK  225  A    between atoms: _548  and  _549
REMARK  226  A    between atoms: _549  and  _550
REMARK  227  A    between atoms: _550  and  _551
REMARK  228  A    between atoms: _560  and  _562
REMARK  229  A    between atoms: _562  and  _563
REMARK  230  A    between atoms: _562  and  _565
REMARK  231  A    between atoms: _565  and  _566
REMARK                            x       y       z     vdW  Elec       q    Type
REMARK                         _______ _______ _______ _____ _____    ______ ____
ROOT
ATOM      1  O   HOH     1      19.664  37.993  18.413  0.00  0.00    +0.000 OA
ENDROOT
TORSDOF 0
REMARK  Name = ../refined-set-2016/2q5k/2q5k_pocket.pdb
REMARK  231 active torsions:
REMARK  status: ('A' for Active; 'I' for Inactive)
REMARK    1  A    between atoms: _1  and  _3
REMARK    2  A    between atoms: _3  and  _4
REMARK    3  A    between atoms: _3  and  _6
REMARK    4  A    between atoms: _6  and  _7
REMARK    5  A    between atoms: _7  and  _8
REMARK    6  A    between atoms: _8  and  _9
REMARK    7  A    between atoms: _18  and  _20
REMARK    8  A    between atoms: _20  and  _21
REMARK    9  A    between atoms: _20  and  _23
REMARK   10  A    between atoms: _23  and  _24
REMARK   11  A    between atoms: _27  and  _29
REMARK   12  A    between atoms: _29  and  _30
REMARK   13  A    between atoms: _29  and  _32
REMARK   14  A    between atoms: _32  and  _33
REMARK   15  A    between atoms: _36  and  _38
REMARK   16  A    between atoms: _38  and  _39
REMARK   17  A    between atoms: _38  and  _41
REMARK   18  A    between atoms: _41  and  _42
REMARK   19  A    between atoms: _45  and  _47
REMARK   20  A    between atoms: _47  and  _48
REMARK   21  A    between atoms: _47  and  _50
REMARK   22  A    between atoms: _50  and  _51
REMARK   23  A    between atoms: _54  and  _56
REMARK   24  A    between atoms: _56  and  _57
REMARK   25  A    between atoms: _59  and  _61
REMARK   26  A    between atoms: _61  and  _62
REMARK   27  A    between atoms: _65  and  _67
REMARK   28  A    between atoms: _67  and  _68
REMARK   29  A    between atoms: _67  and  _70
REMARK   30  A    between atoms: _70  and  _71
REMARK   31  A    between atoms: _74  and  _76
REMARK   32  A    between atoms: _76  and  _77
REMARK   33  A    between atoms: _76  and  _79
REMARK   34  A    between atoms: _79  and  _80
REMARK   35  A    between atoms: _83  and  _85
REMARK   36  A    between atoms: _85  and  _86
REMARK   37  A    between atoms: _85  and  _88
REMARK   38  A    between atoms: _88  and  _89
REMARK   39  A    between atoms: _92  and  _94
REMARK   40  A    between atoms: _94  and  _95
REMARK   41  A    between atoms: _94  and  _97
REMARK   42  A    between atoms: _100  and  _102
REMARK   43  A    between atoms: _102  and  _103
REMARK   44  A    between atoms: _102  and  _105
REMARK   45  A    between atoms: _105  and  _106
REMARK   46  A    between atoms: _106  and  _107
REMARK   47  A    between atoms: _107  and  _108
REMARK   48  A    between atoms: _108  and  _109
REMARK   49  A    between atoms: _113  and  _115
REMARK   50  A    between atoms: _115  and  _116
REMARK   51  A    between atoms: _115  and  _118
REMARK   52  A    between atoms: _118  and  _119
REMARK   53  A    between atoms: _119  and  _120
REMARK   54  A    between atoms: _122  and  _124
REMARK   55  A    between atoms: _124  and  _125
REMARK   56  A    between atoms: _124  and  _127
REMARK   57  A    between atoms: _127  and  _128
REMARK   58  A    between atoms: _131  and  _133
REMARK   59  A    between atoms: _133  and  _134
REMARK   60  A    between atoms: _136  and  _138
REMARK   61  A    between atoms: _138  and  _139
REMARK   62  A    between atoms: _141  and  _143
REMARK   63  A    between atoms: _143  and  _144
REMARK   64  A    between atoms: _143  and  _146
REMARK   65  A    between atoms: _146  and  _147
REMARK   66  A    between atoms: _150  and  _152
REMARK   67  A    between atoms: _152  and  _153
REMARK   68  A    between atoms: _155  and  _157
REMARK   69  A    between atoms: _157  and  _158
REMARK   70  A    between atoms: _160  and  _162
REMARK   71  A    between atoms: _162  and  _163
REMARK   72  A    between atoms: _162  and  _165
REMARK   73  A    between atoms: _165  and  _166
REMARK   74  A    between atoms: _172  and  _174
REMARK   75  A    between atoms: _174  and  _175
REMARK   76  A    between atoms: _174  and  _177
REMARK   77  A    between atoms: _177  and  _178
REMARK   78  A    between atoms: _181  and  _183
REMARK   79  A    between atoms: _183  and  _184
REMARK   80  A    between atoms: _183  and  _186
REMARK   81  A    between atoms: _186  and  _187
REMARK   82  A    between atoms: _191  and  _192
REMARK   83  A    between atoms: _197  and  _199
REMARK   84  A    between atoms: _199  and  _200
REMARK   85  A    between atoms: _199  and  _202
REMARK   86  A    between atoms: _202  and  _203
REMARK   87  A    between atoms: _207  and  _208
REMARK   88  A    between atoms: _213  and  _215
REMARK   89  A    between atoms: _215  and  _216
REMARK   90  A    between atoms: _215  and  _218
REMARK   91  A    between atoms: _221  and  _223
REMARK   92  A    between atoms: _223  and  _224
REMARK   93  A    between atoms: _223  and  _226
REMARK   94  A    between atoms: _226  and  _227
REMARK   95  A    between atoms: _232  and  _234
REMARK   96  A    between atoms: _234  and  _235
REMARK   97  A    between atoms: _234  and  _237
REMARK   98  A    between atoms: _237  and  _238
REMARK   99  A    between atoms: _241  and  _243
REMARK  100  A    between atoms: _243  and  _244
REMARK  101  A    between atoms: _243  and  _246
REMARK  102  A    between atoms: _246  and  _247
REMARK  103  A    between atoms: _250  and  _252
REMARK  104  A    between atoms: _252  and  _253
REMARK  105  A    between atoms: _255  and  _257
REMARK  106  A    between atoms: _257  and  _258
REMARK  107  A    between atoms: _257  and  _260
REMARK  108  A    between atoms: _260  and  _261
REMARK  109  A    between atoms: _261  and  _262
REMARK  110  A    between atoms: _262  and  _263
REMARK  111  A    between atoms: _272  and  _274
REMARK  112  A    between atoms: _274  and  _275
REMARK  113  A    between atoms: _274  and  _277
REMARK  114  A    between atoms: _277  and  _278
REMARK  115  A    between atoms: _278  and  _279
REMARK  116  A    between atoms: _279  and  _280
REMARK  117  A    between atoms: _289  and  _291
REMARK  118  A    between atoms: _291  and  _292
REMARK  119  A    between atoms: _291  and  _294
REMARK  120  A    between atoms: _294  and  _295
REMARK  121  A    between atoms: _298  and  _300
REMARK  122  A    between atoms: _300  and  _301
REMARK  123  A    between atoms: _300  and  _303
REMARK  124  A    between atoms: _303  and  _304
REMARK  125  A    between atoms: _307  and  _309
REMARK  126  A    between atoms: _309  and  _310
REMARK  127  A    between atoms: _309  and  _312
REMARK  128  A    between atoms: _312  and  _313
REMARK  129  A    between atoms: _316  and  _318
REMARK  130  A    between atoms: _318  and  _319
REMARK  131  A    between atoms: _318  and  _321
REMARK  132  A    between atoms: _321  and  _322
REMARK  133  A    between atoms: _325  and  _327
REMARK  134  A    between atoms: _327  and  _328
REMARK  135  A    between atoms: _330  and  _332
REMARK  136  A    between atoms: _332  and  _333
REMARK  137  A    between atoms: _336  and  _338
REMARK  138  A    between atoms: _338  and  _339
REMARK  139  A    between atoms: _338  and  _341
REMARK  140  A    between atoms: _341  and  _342
REMARK  141  A    between atoms: _345  and  _347
REMARK  142  A    between atoms: _347  and  _348
REMARK  143  A    between atoms: _347  and  _350
REMARK  144  A    between atoms: _350  and  _351
REMARK  145  A    between atoms: _354  and  _356
REMARK  146  A    between atoms: _356  and  _357
REMARK  147  A    between atoms: _356  and  _359
REMARK  148  A    between atoms: _359  and  _360
REMARK  149  A    between atoms: _363  and  _365
REMARK  150  A    between atoms: _365  and  _366
REMARK  151  A    between atoms: _365  and  _368
REMARK  152  A    between atoms: _371  and  _373
REMARK  153  A    between atoms: _373  and  _374
REMARK  154  A    between atoms: _373  and  _376
REMARK  155  A    between atoms: _376  and  _377
REMARK  156  A    between atoms: _380  and  _382
REMARK  157  A    between atoms: _382  and  _383
REMARK  158  A    between atoms: _382  and  _385
REMARK  159  A    between atoms: _385  and  _386
REMARK  160  A    between atoms: _386  and  _387
REMARK  161  A    between atoms: _387  and  _388
REMARK  162  A    between atoms: _388  and  _389
REMARK  163  A    between atoms: _393  and  _395
REMARK  164  A    between atoms: _395  and  _396
REMARK  165  A    between atoms: _395  and  _398
REMARK  166  A    between atoms: _398  and  _399
REMARK  167  A    between atoms: _399  and  _400
REMARK  168  A    between atoms: _402  and  _404
REMARK  169  A    between atoms: _404  and  _405
REMARK  170  A    between atoms: _404  and  _407
REMARK  171  A    between atoms: _407  and  _408
REMARK  172  A    between atoms: _411  and  _413
REMARK  173  A    between atoms: _413  and  _414
REMARK  174  A    between atoms: _416  and  _418
REMARK  175  A    between atoms: _418  and  _419
REMARK  176  A    between atoms: _421  and  _423
REMARK  177  A    between atoms: _423  and  _424
REMARK  178  A    between atoms: _423  and  _426
REMARK  179  A    between atoms: _426  and  _427
REMARK  180  A    between atoms: _430  and  _432
REMARK  181  A    between atoms: _432  and  _433
REMARK  182  A    between atoms: _435  and  _437
REMARK  183  A    between atoms: _437  and  _438
REMARK  184  A    between atoms: _440  and  _442
REMARK  185  A    between atoms: _442  and  _443
REMARK  186  A    between atoms: _442  and  _445
REMARK  187  A    between atoms: _445  and  _446
REMARK  188  A    between atoms: _452  and  _454
REMARK  189  A    between atoms: _454  and  _455
REMARK  190  A    between atoms: _454  and  _457
REMARK  191  A    between atoms: _457  and  _458
REMARK  192  A    between atoms: _461  and  _463
REMARK  193  A    between atoms: _463  and  _464
REMARK  194  A    between atoms: _463  and  _466
REMARK  195  A    between atoms: _469  and  _471
REMARK  196  A    between atoms: _471  and  _472
REMARK  197  A    between atoms: _471  and  _474
REMARK  198  A    between atoms: _474  and  _475
REMARK  199  A    between atoms: _479  and  _480
REMARK  200  A    between atoms: _485  and  _487
REMARK  201  A    between atoms: _487  and  _488
REMARK  202  A    between atoms: _487  and  _490
REMARK  203  A    between atoms: _490  and  _491
REMARK  204  A    between atoms: _495  and  _496
REMARK  205  A    between atoms: _501  and  _503
REMARK  206  A    between atoms: _503  and  _504
REMARK  207  A    between atoms: _503  and  _506
REMARK  208  A    between atoms: _509  and  _511
REMARK  209  A    between atoms: _511  and  _512
REMARK  210  A    between atoms: _511  and  _514
REMARK  211  A    between atoms: _514  and  _515
REMARK  212  A    between atoms: _520  and  _522
REMARK  213  A    between atoms: _522  and  _523
REMARK  214  A    between atoms: _522  and  _525
REMARK  215  A    between atoms: _525  and  _526
REMARK  216  A    between atoms: _529  and  _531
REMARK  217  A    between atoms: _531  and  _532
REMARK  218  A    between atoms: _531  and  _534
REMARK  219  A    between atoms: _534  and  _535
REMARK  220  A    between atoms: _538  and  _540
REMARK  221  A    between atoms: _540  and  _541
REMARK  222  A    between atoms: _543  and  _545
REMARK  223  A    between atoms: _545  and  _546
REMARK  224  A    between atoms: _545  and  _548
REMARK  225  A    between atoms: _548  and  _549
REMARK  226  A    between atoms: _549  and  _550
REMARK  227  A    between atoms: _550  and  _551
REMARK  228  A    between atoms: _560  and  _562
REMARK  229  A    between atoms: _562  and  _563
REMARK  230  A    between atoms: _562  and  _565
REMARK  231  A    between atoms: _565  and  _566
REMARK                            x       y       z     vdW  Elec       q    Type
REMARK                         _______ _______ _______ _____ _____    ______ ____
ROOT
ATOM      1  O   HOH     1      24.541  20.944   7.887  0.00  0.00    +0.000 OA
ENDROOT
TORSDOF 0
REMARK  Name = ../refined-set-2016/2q5k/2q5k_pocket.pdb
REMARK  231 active torsions:
REMARK  status: ('A' for Active; 'I' for Inactive)
REMARK    1  A    between atoms: _1  and  _3
REMARK    2  A    between atoms: _3  and  _4
REMARK    3  A    between atoms: _3  and  _6
REMARK    4  A    between atoms: _6  and  _7
REMARK    5  A    between atoms: _7  and  _8
REMARK    6  A    between atoms: _8  and  _9
REMARK    7  A    between atoms: _18  and  _20
REMARK    8  A    between atoms: _20  and  _21
REMARK    9  A    between atoms: _20  and  _23
REMARK   10  A    between atoms: _23  and  _24
REMARK   11  A    between atoms: _27  and  _29
REMARK   12  A    between atoms: _29  and  _30
REMARK   13  A    between atoms: _29  and  _32
REMARK   14  A    between atoms: _32  and  _33
REMARK   15  A    between atoms: _36  and  _38
REMARK   16  A    between atoms: _38  and  _39
REMARK   17  A    between atoms: _38  and  _41
REMARK   18  A    between atoms: _41  and  _42
REMARK   19  A    between atoms: _45  and  _47
REMARK   20  A    between atoms: _47  and  _48
REMARK   21  A    between atoms: _47  and  _50
REMARK   22  A    between atoms: _50  and  _51
REMARK   23  A    between atoms: _54  and  _56
REMARK   24  A    between atoms: _56  and  _57
REMARK   25  A    between atoms: _59  and  _61
REMARK   26  A    between atoms: _61  and  _62
REMARK   27  A    between atoms: _65  and  _67
REMARK   28  A    between atoms: _67  and  _68
REMARK   29  A    between atoms: _67  and  _70
REMARK   30  A    between atoms: _70  and  _71
REMARK   31  A    between atoms: _74  and  _76
REMARK   32  A    between atoms: _76  and  _77
REMARK   33  A    between atoms: _76  and  _79
REMARK   34  A    between atoms: _79  and  _80
REMARK   35  A    between atoms: _83  and  _85
REMARK   36  A    between atoms: _85  and  _86
REMARK   37  A    between atoms: _85  and  _88
REMARK   38  A    between atoms: _88  and  _89
REMARK   39  A    between atoms: _92  and  _94
REMARK   40  A    between atoms: _94  and  _95
REMARK   41  A    between atoms: _94  and  _97
REMARK   42  A    between atoms: _100  and  _102
REMARK   43  A    between atoms: _102  and  _103
REMARK   44  A    between atoms: _102  and  _105
REMARK   45  A    between atoms: _105  and  _106
REMARK   46  A    between atoms: _106  and  _107
REMARK   47  A    between atoms: _107  and  _108
REMARK   48  A    between atoms: _108  and  _109
REMARK   49  A    between atoms: _113  and  _115
REMARK   50  A    between atoms: _115  and  _116
REMARK   51  A    between atoms: _115  and  _118
REMARK   52  A    between atoms: _118  and  _119
REMARK   53  A    between atoms: _119  and  _120
REMARK   54  A    between atoms: _122  and  _124
REMARK   55  A    between atoms: _124  and  _125
REMARK   56  A    between atoms: _124  and  _127
REMARK   57  A    between atoms: _127  and  _128
REMARK   58  A    between atoms: _131  and  _133
REMARK   59  A    between atoms: _133  and  _134
REMARK   60  A    between atoms: _136  and  _138
REMARK   61  A    between atoms: _138  and  _139
REMARK   62  A    between atoms: _141  and  _143
REMARK   63  A    between atoms: _143  and  _144
REMARK   64  A    between atoms: _143  and  _146
REMARK   65  A    between atoms: _146  and  _147
REMARK   66  A    between atoms: _150  and  _152
REMARK   67  A    between atoms: _152  and  _153
REMARK   68  A    between atoms: _155  and  _157
REMARK   69  A    between atoms: _157  and  _158
REMARK   70  A    between atoms: _160  and  _162
REMARK   71  A    between atoms: _162  and  _163
REMARK   72  A    between atoms: _162  and  _165
REMARK   73  A    between atoms: _165  and  _166
REMARK   74  A    between atoms: _172  and  _174
REMARK   75  A    between atoms: _174  and  _175
REMARK   76  A    between atoms: _174  and  _177
REMARK   77  A    between atoms: _177  and  _178
REMARK   78  A    between atoms: _181  and  _183
REMARK   79  A    between atoms: _183  and  _184
REMARK   80  A    between atoms: _183  and  _186
REMARK   81  A    between atoms: _186  and  _187
REMARK   82  A    between atoms: _191  and  _192
REMARK   83  A    between atoms: _197  and  _199
REMARK   84  A    between atoms: _199  and  _200
REMARK   85  A    between atoms: _199  and  _202
REMARK   86  A    between atoms: _202  and  _203
REMARK   87  A    between atoms: _207  and  _208
REMARK   88  A    between atoms: _213  and  _215
REMARK   89  A    between atoms: _215  and  _216
REMARK   90  A    between atoms: _215  and  _218
REMARK   91  A    between atoms: _221  and  _223
REMARK   92  A    between atoms: _223  and  _224
REMARK   93  A    between atoms: _223  and  _226
REMARK   94  A    between atoms: _226  and  _227
REMARK   95  A    between atoms: _232  and  _234
REMARK   96  A    between atoms: _234  and  _235
REMARK   97  A    between atoms: _234  and  _237
REMARK   98  A    between atoms: _237  and  _238
REMARK   99  A    between atoms: _241  and  _243
REMARK  100  A    between atoms: _243  and  _244
REMARK  101  A    between atoms: _243  and  _246
REMARK  102  A    between atoms: _246  and  _247
REMARK  103  A    between atoms: _250  and  _252
REMARK  104  A    between atoms: _252  and  _253
REMARK  105  A    between atoms: _255  and  _257
REMARK  106  A    between atoms: _257  and  _258
REMARK  107  A    between atoms: _257  and  _260
REMARK  108  A    between atoms: _260  and  _261
REMARK  109  A    between atoms: _261  and  _262
REMARK  110  A    between atoms: _262  and  _263
REMARK  111  A    between atoms: _272  and  _274
REMARK  112  A    between atoms: _274  and  _275
REMARK  113  A    between atoms: _274  and  _277
REMARK  114  A    between atoms: _277  and  _278
REMARK  115  A    between atoms: _278  and  _279
REMARK  116  A    between atoms: _279  and  _280
REMARK  117  A    between atoms: _289  and  _291
REMARK  118  A    between atoms: _291  and  _292
REMARK  119  A    between atoms: _291  and  _294
REMARK  120  A    between atoms: _294  and  _295
REMARK  121  A    between atoms: _298  and  _300
REMARK  122  A    between atoms: _300  and  _301
REMARK  123  A    between atoms: _300  and  _303
REMARK  124  A    between atoms: _303  and  _304
REMARK  125  A    between atoms: _307  and  _309
REMARK  126  A    between atoms: _309  and  _310
REMARK  127  A    between atoms: _309  and  _312
REMARK  128  A    between atoms: _312  and  _313
REMARK  129  A    between atoms: _316  and  _318
REMARK  130  A    between atoms: _318  and  _319
REMARK  131  A    between atoms: _318  and  _321
REMARK  132  A    between atoms: _321  and  _322
REMARK  133  A    between atoms: _325  and  _327
REMARK  134  A    between atoms: _327  and  _328
REMARK  135  A    between atoms: _330  and  _332
REMARK  136  A    between atoms: _332  and  _333
REMARK  137  A    between atoms: _336  and  _338
REMARK  138  A    between atoms: _338  and  _339
REMARK  139  A    between atoms: _338  and  _341
REMARK  140  A    between atoms: _341  and  _342
REMARK  141  A    between atoms: _345  and  _347
REMARK  142  A    between atoms: _347  and  _348
REMARK  143  A    between atoms: _347  and  _350
REMARK  144  A    between atoms: _350  and  _351
REMARK  145  A    between atoms: _354  and  _356
REMARK  146  A    between atoms: _356  and  _357
REMARK  147  A    between atoms: _356  and  _359
REMARK  148  A    between atoms: _359  and  _360
REMARK  149  A    between atoms: _363  and  _365
REMARK  150  A    between atoms: _365  and  _366
REMARK  151  A    between atoms: _365  and  _368
REMARK  152  A    between atoms: _371  and  _373
REMARK  153  A    between atoms: _373  and  _374
REMARK  154  A    between atoms: _373  and  _376
REMARK  155  A    between atoms: _376  and  _377
REMARK  156  A    between atoms: _380  and  _382
REMARK  157  A    between atoms: _382  and  _383
REMARK  158  A    between atoms: _382  and  _385
REMARK  159  A    between atoms: _385  and  _386
REMARK  160  A    between atoms: _386  and  _387
REMARK  161  A    between atoms: _387  and  _388
REMARK  162  A    between atoms: _388  and  _389
REMARK  163  A    between atoms: _393  and  _395
REMARK  164  A    between atoms: _395  and  _396
REMARK  165  A    between atoms: _395  and  _398
REMARK  166  A    between atoms: _398  and  _399
REMARK  167  A    between atoms: _399  and  _400
REMARK  168  A    between atoms: _402  and  _404
REMARK  169  A    between atoms: _404  and  _405
REMARK  170  A    between atoms: _404  and  _407
REMARK  171  A    between atoms: _407  and  _408
REMARK  172  A    between atoms: _411  and  _413
REMARK  173  A    between atoms: _413  and  _414
REMARK  174  A    between atoms: _416  and  _418
REMARK  175  A    between atoms: _418  and  _419
REMARK  176  A    between atoms: _421  and  _423
REMARK  177  A    between atoms: _423  and  _424
REMARK  178  A    between atoms: _423  and  _426
REMARK  179  A    between atoms: _426  and  _427
REMARK  180  A    between atoms: _430  and  _432
REMARK  181  A    between atoms: _432  and  _433
REMARK  182  A    between atoms: _435  and  _437
REMARK  183  A    between atoms: _437  and  _438
REMARK  184  A    between atoms: _440  and  _442
REMARK  185  A    between atoms: _442  and  _443
REMARK  186  A    between atoms: _442  and  _445
REMARK  187  A    between atoms: _445  and  _446
REMARK  188  A    between atoms: _452  and  _454
REMARK  189  A    between atoms: _454  and  _455
REMARK  190  A    between atoms: _454  and  _457
REMARK  191  A    between atoms: _457  and  _458
REMARK  192  A    between atoms: _461  and  _463
REMARK  193  A    between atoms: _463  and  _464
REMARK  194  A    between atoms: _463  and  _466
REMARK  195  A    between atoms: _469  and  _471
REMARK  196  A    between atoms: _471  and  _472
REMARK  197  A    between atoms: _471  and  _474
REMARK  198  A    between atoms: _474  and  _475
REMARK  199  A    between atoms: _479  and  _480
REMARK  200  A    between atoms: _485  and  _487
REMARK  201  A    between atoms: _487  and  _488
REMARK  202  A    between atoms: _487  and  _490
REMARK  203  A    between atoms: _490  and  _491
REMARK  204  A    between atoms: _495  and  _496
REMARK  205  A    between atoms: _501  and  _503
REMARK  206  A    between atoms: _503  and  _504
REMARK  207  A    between atoms: _503  and  _506
REMARK  208  A    between atoms: _509  and  _511
REMARK  209  A    between atoms: _511  and  _512
REMARK  210  A    between atoms: _511  and  _514
REMARK  211  A    between atoms: _514  and  _515
REMARK  212  A    between atoms: _520  and  _522
REMARK  213  A    between atoms: _522  and  _523
REMARK  214  A    between atoms: _522  and  _525
REMARK  215  A    between atoms: _525  and  _526
REMARK  216  A    between atoms: _529  and  _531
REMARK  217  A    between atoms: _531  and  _532
REMARK  218  A    between atoms: _531  and  _534
REMARK  219  A    between atoms: _534  and  _535
REMARK  220  A    between atoms: _538  and  _540
REMARK  221  A    between atoms: _540  and  _541
REMARK  222  A    between atoms: _543  and  _545
REMARK  223  A    between atoms: _545  and  _546
REMARK  224  A    between atoms: _545  and  _548
REMARK  225  A    between atoms: _548  and  _549
REMARK  226  A    between atoms: _549  and  _550
REMARK  227  A    between atoms: _550  and  _551
REMARK  228  A    between atoms: _560  and  _562
REMARK  229  A    between atoms: _562  and  _563
REMARK  230  A    between atoms: _562  and  _565
REMARK  231  A    between atoms: _565  and  _566
REMARK                            x       y       z     vdW  Elec       q    Type
REMARK                         _______ _______ _______ _____ _____    ______ ____
ROOT
ATOM      1  O   HOH     1      15.809  33.406   4.701  0.00  0.00    +0.000 OA
ENDROOT
TORSDOF 0
REMARK  Name = ../refined-set-2016/2q5k/2q5k_pocket.pdb
REMARK  231 active torsions:
REMARK  status: ('A' for Active; 'I' for Inactive)
REMARK    1  A    between atoms: _1  and  _3
REMARK    2  A    between atoms: _3  and  _4
REMARK    3  A    between atoms: _3  and  _6
REMARK    4  A    between atoms: _6  and  _7
REMARK    5  A    between atoms: _7  and  _8
REMARK    6  A    between atoms: _8  and  _9
REMARK    7  A    between atoms: _18  and  _20
REMARK    8  A    between atoms: _20  and  _21
REMARK    9  A    between atoms: _20  and  _23
REMARK   10  A    between atoms: _23  and  _24
REMARK   11  A    between atoms: _27  and  _29
REMARK   12  A    between atoms: _29  and  _30
REMARK   13  A    between atoms: _29  and  _32
REMARK   14  A    between atoms: _32  and  _33
REMARK   15  A    between atoms: _36  and  _38
REMARK   16  A    between atoms: _38  and  _39
REMARK   17  A    between atoms: _38  and  _41
REMARK   18  A    between atoms: _41  and  _42
REMARK   19  A    between atoms: _45  and  _47
REMARK   20  A    between atoms: _47  and  _48
REMARK   21  A    between atoms: _47  and  _50
REMARK   22  A    between atoms: _50  and  _51
REMARK   23  A    between atoms: _54  and  _56
REMARK   24  A    between atoms: _56  and  _57
REMARK   25  A    between atoms: _59  and  _61
REMARK   26  A    between atoms: _61  and  _62
REMARK   27  A    between atoms: _65  and  _67
REMARK   28  A    between atoms: _67  and  _68
REMARK   29  A    between atoms: _67  and  _70
REMARK   30  A    between atoms: _70  and  _71
REMARK   31  A    between atoms: _74  and  _76
REMARK   32  A    between atoms: _76  and  _77
REMARK   33  A    between atoms: _76  and  _79
REMARK   34  A    between atoms: _79  and  _80
REMARK   35  A    between atoms: _83  and  _85
REMARK   36  A    between atoms: _85  and  _86
REMARK   37  A    between atoms: _85  and  _88
REMARK   38  A    between atoms: _88  and  _89
REMARK   39  A    between atoms: _92  and  _94
REMARK   40  A    between atoms: _94  and  _95
REMARK   41  A    between atoms: _94  and  _97
REMARK   42  A    between atoms: _100  and  _102
REMARK   43  A    between atoms: _102  and  _103
REMARK   44  A    between atoms: _102  and  _105
REMARK   45  A    between atoms: _105  and  _106
REMARK   46  A    between atoms: _106  and  _107
REMARK   47  A    between atoms: _107  and  _108
REMARK   48  A    between atoms: _108  and  _109
REMARK   49  A    between atoms: _113  and  _115
REMARK   50  A    between atoms: _115  and  _116
REMARK   51  A    between atoms: _115  and  _118
REMARK   52  A    between atoms: _118  and  _119
REMARK   53  A    between atoms: _119  and  _120
REMARK   54  A    between atoms: _122  and  _124
REMARK   55  A    between atoms: _124  and  _125
REMARK   56  A    between atoms: _124  and  _127
REMARK   57  A    between atoms: _127  and  _128
REMARK   58  A    between atoms: _131  and  _133
REMARK   59  A    between atoms: _133  and  _134
REMARK   60  A    between atoms: _136  and  _138
REMARK   61  A    between atoms: _138  and  _139
REMARK   62  A    between atoms: _141  and  _143
REMARK   63  A    between atoms: _143  and  _144
REMARK   64  A    between atoms: _143  and  _146
REMARK   65  A    between atoms: _146  and  _147
REMARK   66  A    between atoms: _150  and  _152
REMARK   67  A    between atoms: _152  and  _153
REMARK   68  A    between atoms: _155  and  _157
REMARK   69  A    between atoms: _157  and  _158
REMARK   70  A    between atoms: _160  and  _162
REMARK   71  A    between atoms: _162  and  _163
REMARK   72  A    between atoms: _162  and  _165
REMARK   73  A    between atoms: _165  and  _166
REMARK   74  A    between atoms: _172  and  _174
REMARK   75  A    between atoms: _174  and  _175
REMARK   76  A    between atoms: _174  and  _177
REMARK   77  A    between atoms: _177  and  _178
REMARK   78  A    between atoms: _181  and  _183
REMARK   79  A    between atoms: _183  and  _184
REMARK   80  A    between atoms: _183  and  _186
REMARK   81  A    between atoms: _186  and  _187
REMARK   82  A    between atoms: _191  and  _192
REMARK   83  A    between atoms: _197  and  _199
REMARK   84  A    between atoms: _199  and  _200
REMARK   85  A    between atoms: _199  and  _202
REMARK   86  A    between atoms: _202  and  _203
REMARK   87  A    between atoms: _207  and  _208
REMARK   88  A    between atoms: _213  and  _215
REMARK   89  A    between atoms: _215  and  _216
REMARK   90  A    between atoms: _215  and  _218
REMARK   91  A    between atoms: _221  and  _223
REMARK   92  A    between atoms: _223  and  _224
REMARK   93  A    between atoms: _223  and  _226
REMARK   94  A    between atoms: _226  and  _227
REMARK   95  A    between atoms: _232  and  _234
REMARK   96  A    between atoms: _234  and  _235
REMARK   97  A    between atoms: _234  and  _237
REMARK   98  A    between atoms: _237  and  _238
REMARK   99  A    between atoms: _241  and  _243
REMARK  100  A    between atoms: _243  and  _244
REMARK  101  A    between atoms: _243  and  _246
REMARK  102  A    between atoms: _246  and  _247
REMARK  103  A    between atoms: _250  and  _252
REMARK  104  A    between atoms: _252  and  _253
REMARK  105  A    between atoms: _255  and  _257
REMARK  106  A    between atoms: _257  and  _258
REMARK  107  A    between atoms: _257  and  _260
REMARK  108  A    between atoms: _260  and  _261
REMARK  109  A    between atoms: _261  and  _262
REMARK  110  A    between atoms: _262  and  _263
REMARK  111  A    between atoms: _272  and  _274
REMARK  112  A    between atoms: _274  and  _275
REMARK  113  A    between atoms: _274  and  _277
REMARK  114  A    between atoms: _277  and  _278
REMARK  115  A    between atoms: _278  and  _279
REMARK  116  A    between atoms: _279  and  _280
REMARK  117  A    between atoms: _289  and  _291
REMARK  118  A    between atoms: _291  and  _292
REMARK  119  A    between atoms: _291  and  _294
REMARK  120  A    between atoms: _294  and  _295
REMARK  121  A    between atoms: _298  and  _300
REMARK  122  A    between atoms: _300  and  _301
REMARK  123  A    between atoms: _300  and  _303
REMARK  124  A    between atoms: _303  and  _304
REMARK  125  A    between atoms: _307  and  _309
REMARK  126  A    between atoms: _309  and  _310
REMARK  127  A    between atoms: _309  and  _312
REMARK  128  A    between atoms: _312  and  _313
REMARK  129  A    between atoms: _316  and  _318
REMARK  130  A    between atoms: _318  and  _319
REMARK  131  A    between atoms: _318  and  _321
REMARK  132  A    between atoms: _321  and  _322
REMARK  133  A    between atoms: _325  and  _327
REMARK  134  A    between atoms: _327  and  _328
REMARK  135  A    between atoms: _330  and  _332
REMARK  136  A    between atoms: _332  and  _333
REMARK  137  A    between atoms: _336  and  _338
REMARK  138  A    between atoms: _338  and  _339
REMARK  139  A    between atoms: _338  and  _341
REMARK  140  A    between atoms: _341  and  _342
REMARK  141  A    between atoms: _345  and  _347
REMARK  142  A    between atoms: _347  and  _348
REMARK  143  A    between atoms: _347  and  _350
REMARK  144  A    between atoms: _350  and  _351
REMARK  145  A    between atoms: _354  and  _356
REMARK  146  A    between atoms: _356  and  _357
REMARK  147  A    between atoms: _356  and  _359
REMARK  148  A    between atoms: _359  and  _360
REMARK  149  A    between atoms: _363  and  _365
REMARK  150  A    between atoms: _365  and  _366
REMARK  151  A    between atoms: _365  and  _368
REMARK  152  A    between atoms: _371  and  _373
REMARK  153  A    between atoms: _373  and  _374
REMARK  154  A    between atoms: _373  and  _376
REMARK  155  A    between atoms: _376  and  _377
REMARK  156  A    between atoms: _380  and  _382
REMARK  157  A    between atoms: _382  and  _383
REMARK  158  A    between atoms: _382  and  _385
REMARK  159  A    between atoms: _385  and  _386
REMARK  160  A    between atoms: _386  and  _387
REMARK  161  A    between atoms: _387  and  _388
REMARK  162  A    between atoms: _388  and  _389
REMARK  163  A    between atoms: _393  and  _395
REMARK  164  A    between atoms: _395  and  _396
REMARK  165  A    between atoms: _395  and  _398
REMARK  166  A    between atoms: _398  and  _399
REMARK  167  A    between atoms: _399  and  _400
REMARK  168  A    between atoms: _402  and  _404
REMARK  169  A    between atoms: _404  and  _405
REMARK  170  A    between atoms: _404  and  _407
REMARK  171  A    between atoms: _407  and  _408
REMARK  172  A    between atoms: _411  and  _413
REMARK  173  A    between atoms: _413  and  _414
REMARK  174  A    between atoms: _416  and  _418
REMARK  175  A    between atoms: _418  and  _419
REMARK  176  A    between atoms: _421  and  _423
REMARK  177  A    between atoms: _423  and  _424
REMARK  178  A    between atoms: _423  and  _426
REMARK  179  A    between atoms: _426  and  _427
REMARK  180  A    between atoms: _430  and  _432
REMARK  181  A    between atoms: _432  and  _433
REMARK  182  A    between atoms: _435  and  _437
REMARK  183  A    between atoms: _437  and  _438
REMARK  184  A    between atoms: _440  and  _442
REMARK  185  A    between atoms: _442  and  _443
REMARK  186  A    between atoms: _442  and  _445
REMARK  187  A    between atoms: _445  and  _446
REMARK  188  A    between atoms: _452  and  _454
REMARK  189  A    between atoms: _454  and  _455
REMARK  190  A    between atoms: _454  and  _457
REMARK  191  A    between atoms: _457  and  _458
REMARK  192  A    between atoms: _461  and  _463
REMARK  193  A    between atoms: _463  and  _464
REMARK  194  A    between atoms: _463  and  _466
REMARK  195  A    between atoms: _469  and  _471
REMARK  196  A    between atoms: _471  and  _472
REMARK  197  A    between atoms: _471  and  _474
REMARK  198  A    between atoms: _474  and  _475
REMARK  199  A    between atoms: _479  and  _480
REMARK  200  A    between atoms: _485  and  _487
REMARK  201  A    between atoms: _487  and  _488
REMARK  202  A    between atoms: _487  and  _490
REMARK  203  A    between atoms: _490  and  _491
REMARK  204  A    between atoms: _495  and  _496
REMARK  205  A    between atoms: _501  and  _503
REMARK  206  A    between atoms: _503  and  _504
REMARK  207  A    between atoms: _503  and  _506
REMARK  208  A    between atoms: _509  and  _511
REMARK  209  A    between atoms: _511  and  _512
REMARK  210  A    between atoms: _511  and  _514
REMARK  211  A    between atoms: _514  and  _515
REMARK  212  A    between atoms: _520  and  _522
REMARK  213  A    between atoms: _522  and  _523
REMARK  214  A    between atoms: _522  and  _525
REMARK  215  A    between atoms: _525  and  _526
REMARK  216  A    between atoms: _529  and  _531
REMARK  217  A    between atoms: _531  and  _532
REMARK  218  A    between atoms: _531  and  _534
REMARK  219  A    between atoms: _534  and  _535
REMARK  220  A    between atoms: _538  and  _540
REMARK  221  A    between atoms: _540  and  _541
REMARK  222  A    between atoms: _543  and  _545
REMARK  223  A    between atoms: _545  and  _546
REMARK  224  A    between atoms: _545  and  _548
REMARK  225  A    between atoms: _548  and  _549
REMARK  226  A    between atoms: _549  and  _550
REMARK  227  A    between atoms: _550  and  _551
REMARK  228  A    between atoms: _560  and  _562
REMARK  229  A    between atoms: _562  and  _563
REMARK  230  A    between atoms: _562  and  _565
REMARK  231  A    between atoms: _565  and  _566
REMARK                            x       y       z     vdW  Elec       q    Type
REMARK                         _______ _______ _______ _____ _____    ______ ____
ROOT
ATOM      1  O   HOH     1      23.835  25.655   3.840  0.00  0.00    +0.000 OA
ENDROOT
TORSDOF 0
REMARK  Name = ../refined-set-2016/2q5k/2q5k_pocket.pdb
REMARK  231 active torsions:
REMARK  status: ('A' for Active; 'I' for Inactive)
REMARK    1  A    between atoms: _1  and  _3
REMARK    2  A    between atoms: _3  and  _4
REMARK    3  A    between atoms: _3  and  _6
REMARK    4  A    between atoms: _6  and  _7
REMARK    5  A    between atoms: _7  and  _8
REMARK    6  A    between atoms: _8  and  _9
REMARK    7  A    between atoms: _18  and  _20
REMARK    8  A    between atoms: _20  and  _21
REMARK    9  A    between atoms: _20  and  _23
REMARK   10  A    between atoms: _23  and  _24
REMARK   11  A    between atoms: _27  and  _29
REMARK   12  A    between atoms: _29  and  _30
REMARK   13  A    between atoms: _29  and  _32
REMARK   14  A    between atoms: _32  and  _33
REMARK   15  A    between atoms: _36  and  _38
REMARK   16  A    between atoms: _38  and  _39
REMARK   17  A    between atoms: _38  and  _41
REMARK   18  A    between atoms: _41  and  _42
REMARK   19  A    between atoms: _45  and  _47
REMARK   20  A    between atoms: _47  and  _48
REMARK   21  A    between atoms: _47  and  _50
REMARK   22  A    between atoms: _50  and  _51
REMARK   23  A    between atoms: _54  and  _56
REMARK   24  A    between atoms: _56  and  _57
REMARK   25  A    between atoms: _59  and  _61
REMARK   26  A    between atoms: _61  and  _62
REMARK   27  A    between atoms: _65  and  _67
REMARK   28  A    between atoms: _67  and  _68
REMARK   29  A    between atoms: _67  and  _70
REMARK   30  A    between atoms: _70  and  _71
REMARK   31  A    between atoms: _74  and  _76
REMARK   32  A    between atoms: _76  and  _77
REMARK   33  A    between atoms: _76  and  _79
REMARK   34  A    between atoms: _79  and  _80
REMARK   35  A    between atoms: _83  and  _85
REMARK   36  A    between atoms: _85  and  _86
REMARK   37  A    between atoms: _85  and  _88
REMARK   38  A    between atoms: _88  and  _89
REMARK   39  A    between atoms: _92  and  _94
REMARK   40  A    between atoms: _94  and  _95
REMARK   41  A    between atoms: _94  and  _97
REMARK   42  A    between atoms: _100  and  _102
REMARK   43  A    between atoms: _102  and  _103
REMARK   44  A    between atoms: _102  and  _105
REMARK   45  A    between atoms: _105  and  _106
REMARK   46  A    between atoms: _106  and  _107
REMARK   47  A    between atoms: _107  and  _108
REMARK   48  A    between atoms: _108  and  _109
REMARK   49  A    between atoms: _113  and  _115
REMARK   50  A    between atoms: _115  and  _116
REMARK   51  A    between atoms: _115  and  _118
REMARK   52  A    between atoms: _118  and  _119
REMARK   53  A    between atoms: _119  and  _120
REMARK   54  A    between atoms: _122  and  _124
REMARK   55  A    between atoms: _124  and  _125
REMARK   56  A    between atoms: _124  and  _127
REMARK   57  A    between atoms: _127  and  _128
REMARK   58  A    between atoms: _131  and  _133
REMARK   59  A    between atoms: _133  and  _134
REMARK   60  A    between atoms: _136  and  _138
REMARK   61  A    between atoms: _138  and  _139
REMARK   62  A    between atoms: _141  and  _143
REMARK   63  A    between atoms: _143  and  _144
REMARK   64  A    between atoms: _143  and  _146
REMARK   65  A    between atoms: _146  and  _147
REMARK   66  A    between atoms: _150  and  _152
REMARK   67  A    between atoms: _152  and  _153
REMARK   68  A    between atoms: _155  and  _157
REMARK   69  A    between atoms: _157  and  _158
REMARK   70  A    between atoms: _160  and  _162
REMARK   71  A    between atoms: _162  and  _163
REMARK   72  A    between atoms: _162  and  _165
REMARK   73  A    between atoms: _165  and  _166
REMARK   74  A    between atoms: _172  and  _174
REMARK   75  A    between atoms: _174  and  _175
REMARK   76  A    between atoms: _174  and  _177
REMARK   77  A    between atoms: _177  and  _178
REMARK   78  A    between atoms: _181  and  _183
REMARK   79  A    between atoms: _183  and  _184
REMARK   80  A    between atoms: _183  and  _186
REMARK   81  A    between atoms: _186  and  _187
REMARK   82  A    between atoms: _191  and  _192
REMARK   83  A    between atoms: _197  and  _199
REMARK   84  A    between atoms: _199  and  _200
REMARK   85  A    between atoms: _199  and  _202
REMARK   86  A    between atoms: _202  and  _203
REMARK   87  A    between atoms: _207  and  _208
REMARK   88  A    between atoms: _213  and  _215
REMARK   89  A    between atoms: _215  and  _216
REMARK   90  A    between atoms: _215  and  _218
REMARK   91  A    between atoms: _221  and  _223
REMARK   92  A    between atoms: _223  and  _224
REMARK   93  A    between atoms: _223  and  _226
REMARK   94  A    between atoms: _226  and  _227
REMARK   95  A    between atoms: _232  and  _234
REMARK   96  A    between atoms: _234  and  _235
REMARK   97  A    between atoms: _234  and  _237
REMARK   98  A    between atoms: _237  and  _238
REMARK   99  A    between atoms: _241  and  _243
REMARK  100  A    between atoms: _243  and  _244
REMARK  101  A    between atoms: _243  and  _246
REMARK  102  A    between atoms: _246  and  _247
REMARK  103  A    between atoms: _250  and  _252
REMARK  104  A    between atoms: _252  and  _253
REMARK  105  A    between atoms: _255  and  _257
REMARK  106  A    between atoms: _257  and  _258
REMARK  107  A    between atoms: _257  and  _260
REMARK  108  A    between atoms: _260  and  _261
REMARK  109  A    between atoms: _261  and  _262
REMARK  110  A    between atoms: _262  and  _263
REMARK  111  A    between atoms: _272  and  _274
REMARK  112  A    between atoms: _274  and  _275
REMARK  113  A    between atoms: _274  and  _277
REMARK  114  A    between atoms: _277  and  _278
REMARK  115  A    between atoms: _278  and  _279
REMARK  116  A    between atoms: _279  and  _280
REMARK  117  A    between atoms: _289  and  _291
REMARK  118  A    between atoms: _291  and  _292
REMARK  119  A    between atoms: _291  and  _294
REMARK  120  A    between atoms: _294  and  _295
REMARK  121  A    between atoms: _298  and  _300
REMARK  122  A    between atoms: _300  and  _301
REMARK  123  A    between atoms: _300  and  _303
REMARK  124  A    between atoms: _303  and  _304
REMARK  125  A    between atoms: _307  and  _309
REMARK  126  A    between atoms: _309  and  _310
REMARK  127  A    between atoms: _309  and  _312
REMARK  128  A    between atoms: _312  and  _313
REMARK  129  A    between atoms: _316  and  _318
REMARK  130  A    between atoms: _318  and  _319
REMARK  131  A    between atoms: _318  and  _321
REMARK  132  A    between atoms: _321  and  _322
REMARK  133  A    between atoms: _325  and  _327
REMARK  134  A    between atoms: _327  and  _328
REMARK  135  A    between atoms: _330  and  _332
REMARK  136  A    between atoms: _332  and  _333
REMARK  137  A    between atoms: _336  and  _338
REMARK  138  A    between atoms: _338  and  _339
REMARK  139  A    between atoms: _338  and  _341
REMARK  140  A    between atoms: _341  and  _342
REMARK  141  A    between atoms: _345  and  _347
REMARK  142  A    between atoms: _347  and  _348
REMARK  143  A    between atoms: _347  and  _350
REMARK  144  A    between atoms: _350  and  _351
REMARK  145  A    between atoms: _354  and  _356
REMARK  146  A    between atoms: _356  and  _357
REMARK  147  A    between atoms: _356  and  _359
REMARK  148  A    between atoms: _359  and  _360
REMARK  149  A    between atoms: _363  and  _365
REMARK  150  A    between atoms: _365  and  _366
REMARK  151  A    between atoms: _365  and  _368
REMARK  152  A    between atoms: _371  and  _373
REMARK  153  A    between atoms: _373  and  _374
REMARK  154  A    between atoms: _373  and  _376
REMARK  155  A    between atoms: _376  and  _377
REMARK  156  A    between atoms: _380  and  _382
REMARK  157  A    between atoms: _382  and  _383
REMARK  158  A    between atoms: _382  and  _385
REMARK  159  A    between atoms: _385  and  _386
REMARK  160  A    between atoms: _386  and  _387
REMARK  161  A    between atoms: _387  and  _388
REMARK  162  A    between atoms: _388  and  _389
REMARK  163  A    between atoms: _393  and  _395
REMARK  164  A    between atoms: _395  and  _396
REMARK  165  A    between atoms: _395  and  _398
REMARK  166  A    between atoms: _398  and  _399
REMARK  167  A    between atoms: _399  and  _400
REMARK  168  A    between atoms: _402  and  _404
REMARK  169  A    between atoms: _404  and  _405
REMARK  170  A    between atoms: _404  and  _407
REMARK  171  A    between atoms: _407  and  _408
REMARK  172  A    between atoms: _411  and  _413
REMARK  173  A    between atoms: _413  and  _414
REMARK  174  A    between atoms: _416  and  _418
REMARK  175  A    between atoms: _418  and  _419
REMARK  176  A    between atoms: _421  and  _423
REMARK  177  A    between atoms: _423  and  _424
REMARK  178  A    between atoms: _423  and  _426
REMARK  179  A    between atoms: _426  and  _427
REMARK  180  A    between atoms: _430  and  _432
REMARK  181  A    between atoms: _432  and  _433
REMARK  182  A    between atoms: _435  and  _437
REMARK  183  A    between atoms: _437  and  _438
REMARK  184  A    between atoms: _440  and  _442
REMARK  185  A    between atoms: _442  and  _443
REMARK  186  A    between atoms: _442  and  _445
REMARK  187  A    between atoms: _445  and  _446
REMARK  188  A    between atoms: _452  and  _454
REMARK  189  A    between atoms: _454  and  _455
REMARK  190  A    between atoms: _454  and  _457
REMARK  191  A    between atoms: _457  and  _458
REMARK  192  A    between atoms: _461  and  _463
REMARK  193  A    between atoms: _463  and  _464
REMARK  194  A    between atoms: _463  and  _466
REMARK  195  A    between atoms: _469  and  _471
REMARK  196  A    between atoms: _471  and  _472
REMARK  197  A    between atoms: _471  and  _474
REMARK  198  A    between atoms: _474  and  _475
REMARK  199  A    between atoms: _479  and  _480
REMARK  200  A    between atoms: _485  and  _487
REMARK  201  A    between atoms: _487  and  _488
REMARK  202  A    between atoms: _487  and  _490
REMARK  203  A    between atoms: _490  and  _491
REMARK  204  A    between atoms: _495  and  _496
REMARK  205  A    between atoms: _501  and  _503
REMARK  206  A    between atoms: _503  and  _504
REMARK  207  A    between atoms: _503  and  _506
REMARK  208  A    between atoms: _509  and  _511
REMARK  209  A    between atoms: _511  and  _512
REMARK  210  A    between atoms: _511  and  _514
REMARK  211  A    between atoms: _514  and  _515
REMARK  212  A    between atoms: _520  and  _522
REMARK  213  A    between atoms: _522  and  _523
REMARK  214  A    between atoms: _522  and  _525
REMARK  215  A    between atoms: _525  and  _526
REMARK  216  A    between atoms: _529  and  _531
REMARK  217  A    between atoms: _531  and  _532
REMARK  218  A    between atoms: _531  and  _534
REMARK  219  A    between atoms: _534  and  _535
REMARK  220  A    between atoms: _538  and  _540
REMARK  221  A    between atoms: _540  and  _541
REMARK  222  A    between atoms: _543  and  _545
REMARK  223  A    between atoms: _545  and  _546
REMARK  224  A    between atoms: _545  and  _548
REMARK  225  A    between atoms: _548  and  _549
REMARK  226  A    between atoms: _549  and  _550
REMARK  227  A    between atoms: _550  and  _551
REMARK  228  A    between atoms: _560  and  _562
REMARK  229  A    between atoms: _562  and  _563
REMARK  230  A    between atoms: _562  and  _565
REMARK  231  A    between atoms: _565  and  _566
REMARK                            x       y       z     vdW  Elec       q    Type
REMARK                         _______ _______ _______ _____ _____    ______ ____
ROOT
ATOM      1  O   HOH     1      19.985  23.120   6.062  0.00  0.00    +0.000 OA
ENDROOT
TORSDOF 0
REMARK  Name = ../refined-set-2016/2q5k/2q5k_pocket.pdb
REMARK  231 active torsions:
REMARK  status: ('A' for Active; 'I' for Inactive)
REMARK    1  A    between atoms: _1  and  _3
REMARK    2  A    between atoms: _3  and  _4
REMARK    3  A    between atoms: _3  and  _6
REMARK    4  A    between atoms: _6  and  _7
REMARK    5  A    between atoms: _7  and  _8
REMARK    6  A    between atoms: _8  and  _9
REMARK    7  A    between atoms: _18  and  _20
REMARK    8  A    between atoms: _20  and  _21
REMARK    9  A    between atoms: _20  and  _23
REMARK   10  A    between atoms: _23  and  _24
REMARK   11  A    between atoms: _27  and  _29
REMARK   12  A    between atoms: _29  and  _30
REMARK   13  A    between atoms: _29  and  _32
REMARK   14  A    between atoms: _32  and  _33
REMARK   15  A    between atoms: _36  and  _38
REMARK   16  A    between atoms: _38  and  _39
REMARK   17  A    between atoms: _38  and  _41
REMARK   18  A    between atoms: _41  and  _42
REMARK   19  A    between atoms: _45  and  _47
REMARK   20  A    between atoms: _47  and  _48
REMARK   21  A    between atoms: _47  and  _50
REMARK   22  A    between atoms: _50  and  _51
REMARK   23  A    between atoms: _54  and  _56
REMARK   24  A    between atoms: _56  and  _57
REMARK   25  A    between atoms: _59  and  _61
REMARK   26  A    between atoms: _61  and  _62
REMARK   27  A    between atoms: _65  and  _67
REMARK   28  A    between atoms: _67  and  _68
REMARK   29  A    between atoms: _67  and  _70
REMARK   30  A    between atoms: _70  and  _71
REMARK   31  A    between atoms: _74  and  _76
REMARK   32  A    between atoms: _76  and  _77
REMARK   33  A    between atoms: _76  and  _79
REMARK   34  A    between atoms: _79  and  _80
REMARK   35  A    between atoms: _83  and  _85
REMARK   36  A    between atoms: _85  and  _86
REMARK   37  A    between atoms: _85  and  _88
REMARK   38  A    between atoms: _88  and  _89
REMARK   39  A    between atoms: _92  and  _94
REMARK   40  A    between atoms: _94  and  _95
REMARK   41  A    between atoms: _94  and  _97
REMARK   42  A    between atoms: _100  and  _102
REMARK   43  A    between atoms: _102  and  _103
REMARK   44  A    between atoms: _102  and  _105
REMARK   45  A    between atoms: _105  and  _106
REMARK   46  A    between atoms: _106  and  _107
REMARK   47  A    between atoms: _107  and  _108
REMARK   48  A    between atoms: _108  and  _109
REMARK   49  A    between atoms: _113  and  _115
REMARK   50  A    between atoms: _115  and  _116
REMARK   51  A    between atoms: _115  and  _118
REMARK   52  A    between atoms: _118  and  _119
REMARK   53  A    between atoms: _119  and  _120
REMARK   54  A    between atoms: _122  and  _124
REMARK   55  A    between atoms: _124  and  _125
REMARK   56  A    between atoms: _124  and  _127
REMARK   57  A    between atoms: _127  and  _128
REMARK   58  A    between atoms: _131  and  _133
REMARK   59  A    between atoms: _133  and  _134
REMARK   60  A    between atoms: _136  and  _138
REMARK   61  A    between atoms: _138  and  _139
REMARK   62  A    between atoms: _141  and  _143
REMARK   63  A    between atoms: _143  and  _144
REMARK   64  A    between atoms: _143  and  _146
REMARK   65  A    between atoms: _146  and  _147
REMARK   66  A    between atoms: _150  and  _152
REMARK   67  A    between atoms: _152  and  _153
REMARK   68  A    between atoms: _155  and  _157
REMARK   69  A    between atoms: _157  and  _158
REMARK   70  A    between atoms: _160  and  _162
REMARK   71  A    between atoms: _162  and  _163
REMARK   72  A    between atoms: _162  and  _165
REMARK   73  A    between atoms: _165  and  _166
REMARK   74  A    between atoms: _172  and  _174
REMARK   75  A    between atoms: _174  and  _175
REMARK   76  A    between atoms: _174  and  _177
REMARK   77  A    between atoms: _177  and  _178
REMARK   78  A    between atoms: _181  and  _183
REMARK   79  A    between atoms: _183  and  _184
REMARK   80  A    between atoms: _183  and  _186
REMARK   81  A    between atoms: _186  and  _187
REMARK   82  A    between atoms: _191  and  _192
REMARK   83  A    between atoms: _197  and  _199
REMARK   84  A    between atoms: _199  and  _200
REMARK   85  A    between atoms: _199  and  _202
REMARK   86  A    between atoms: _202  and  _203
REMARK   87  A    between atoms: _207  and  _208
REMARK   88  A    between atoms: _213  and  _215
REMARK   89  A    between atoms: _215  and  _216
REMARK   90  A    between atoms: _215  and  _218
REMARK   91  A    between atoms: _221  and  _223
REMARK   92  A    between atoms: _223  and  _224
REMARK   93  A    between atoms: _223  and  _226
REMARK   94  A    between atoms: _226  and  _227
REMARK   95  A    between atoms: _232  and  _234
REMARK   96  A    between atoms: _234  and  _235
REMARK   97  A    between atoms: _234  and  _237
REMARK   98  A    between atoms: _237  and  _238
REMARK   99  A    between atoms: _241  and  _243
REMARK  100  A    between atoms: _243  and  _244
REMARK  101  A    between atoms: _243  and  _246
REMARK  102  A    between atoms: _246  and  _247
REMARK  103  A    between atoms: _250  and  _252
REMARK  104  A    between atoms: _252  and  _253
REMARK  105  A    between atoms: _255  and  _257
REMARK  106  A    between atoms: _257  and  _258
REMARK  107  A    between atoms: _257  and  _260
REMARK  108  A    between atoms: _260  and  _261
REMARK  109  A    between atoms: _261  and  _262
REMARK  110  A    between atoms: _262  and  _263
REMARK  111  A    between atoms: _272  and  _274
REMARK  112  A    between atoms: _274  and  _275
REMARK  113  A    between atoms: _274  and  _277
REMARK  114  A    between atoms: _277  and  _278
REMARK  115  A    between atoms: _278  and  _279
REMARK  116  A    between atoms: _279  and  _280
REMARK  117  A    between atoms: _289  and  _291
REMARK  118  A    between atoms: _291  and  _292
REMARK  119  A    between atoms: _291  and  _294
REMARK  120  A    between atoms: _294  and  _295
REMARK  121  A    between atoms: _298  and  _300
REMARK  122  A    between atoms: _300  and  _301
REMARK  123  A    between atoms: _300  and  _303
REMARK  124  A    between atoms: _303  and  _304
REMARK  125  A    between atoms: _307  and  _309
REMARK  126  A    between atoms: _309  and  _310
REMARK  127  A    between atoms: _309  and  _312
REMARK  128  A    between atoms: _312  and  _313
REMARK  129  A    between atoms: _316  and  _318
REMARK  130  A    between atoms: _318  and  _319
REMARK  131  A    between atoms: _318  and  _321
REMARK  132  A    between atoms: _321  and  _322
REMARK  133  A    between atoms: _325  and  _327
REMARK  134  A    between atoms: _327  and  _328
REMARK  135  A    between atoms: _330  and  _332
REMARK  136  A    between atoms: _332  and  _333
REMARK  137  A    between atoms: _336  and  _338
REMARK  138  A    between atoms: _338  and  _339
REMARK  139  A    between atoms: _338  and  _341
REMARK  140  A    between atoms: _341  and  _342
REMARK  141  A    between atoms: _345  and  _347
REMARK  142  A    between atoms: _347  and  _348
REMARK  143  A    between atoms: _347  and  _350
REMARK  144  A    between atoms: _350  and  _351
REMARK  145  A    between atoms: _354  and  _356
REMARK  146  A    between atoms: _356  and  _357
REMARK  147  A    between atoms: _356  and  _359
REMARK  148  A    between atoms: _359  and  _360
REMARK  149  A    between atoms: _363  and  _365
REMARK  150  A    between atoms: _365  and  _366
REMARK  151  A    between atoms: _365  and  _368
REMARK  152  A    between atoms: _371  and  _373
REMARK  153  A    between atoms: _373  and  _374
REMARK  154  A    between atoms: _373  and  _376
REMARK  155  A    between atoms: _376  and  _377
REMARK  156  A    between atoms: _380  and  _382
REMARK  157  A    between atoms: _382  and  _383
REMARK  158  A    between atoms: _382  and  _385
REMARK  159  A    between atoms: _385  and  _386
REMARK  160  A    between atoms: _386  and  _387
REMARK  161  A    between atoms: _387  and  _388
REMARK  162  A    between atoms: _388  and  _389
REMARK  163  A    between atoms: _393  and  _395
REMARK  164  A    between atoms: _395  and  _396
REMARK  165  A    between atoms: _395  and  _398
REMARK  166  A    between atoms: _398  and  _399
REMARK  167  A    between atoms: _399  and  _400
REMARK  168  A    between atoms: _402  and  _404
REMARK  169  A    between atoms: _404  and  _405
REMARK  170  A    between atoms: _404  and  _407
REMARK  171  A    between atoms: _407  and  _408
REMARK  172  A    between atoms: _411  and  _413
REMARK  173  A    between atoms: _413  and  _414
REMARK  174  A    between atoms: _416  and  _418
REMARK  175  A    between atoms: _418  and  _419
REMARK  176  A    between atoms: _421  and  _423
REMARK  177  A    between atoms: _423  and  _424
REMARK  178  A    between atoms: _423  and  _426
REMARK  179  A    between atoms: _426  and  _427
REMARK  180  A    between atoms: _430  and  _432
REMARK  181  A    between atoms: _432  and  _433
REMARK  182  A    between atoms: _435  and  _437
REMARK  183  A    between atoms: _437  and  _438
REMARK  184  A    between atoms: _440  and  _442
REMARK  185  A    between atoms: _442  and  _443
REMARK  186  A    between atoms: _442  and  _445
REMARK  187  A    between atoms: _445  and  _446
REMARK  188  A    between atoms: _452  and  _454
REMARK  189  A    between atoms: _454  and  _455
REMARK  190  A    between atoms: _454  and  _457
REMARK  191  A    between atoms: _457  and  _458
REMARK  192  A    between atoms: _461  and  _463
REMARK  193  A    between atoms: _463  and  _464
REMARK  194  A    between atoms: _463  and  _466
REMARK  195  A    between atoms: _469  and  _471
REMARK  196  A    between atoms: _471  and  _472
REMARK  197  A    between atoms: _471  and  _474
REMARK  198  A    between atoms: _474  and  _475
REMARK  199  A    between atoms: _479  and  _480
REMARK  200  A    between atoms: _485  and  _487
REMARK  201  A    between atoms: _487  and  _488
REMARK  202  A    between atoms: _487  and  _490
REMARK  203  A    between atoms: _490  and  _491
REMARK  204  A    between atoms: _495  and  _496
REMARK  205  A    between atoms: _501  and  _503
REMARK  206  A    between atoms: _503  and  _504
REMARK  207  A    between atoms: _503  and  _506
REMARK  208  A    between atoms: _509  and  _511
REMARK  209  A    between atoms: _511  and  _512
REMARK  210  A    between atoms: _511  and  _514
REMARK  211  A    between atoms: _514  and  _515
REMARK  212  A    between atoms: _520  and  _522
REMARK  213  A    between atoms: _522  and  _523
REMARK  214  A    between atoms: _522  and  _525
REMARK  215  A    between atoms: _525  and  _526
REMARK  216  A    between atoms: _529  and  _531
REMARK  217  A    between atoms: _531  and  _532
REMARK  218  A    between atoms: _531  and  _534
REMARK  219  A    between atoms: _534  and  _535
REMARK  220  A    between atoms: _538  and  _540
REMARK  221  A    between atoms: _540  and  _541
REMARK  222  A    between atoms: _543  and  _545
REMARK  223  A    between atoms: _545  and  _546
REMARK  224  A    between atoms: _545  and  _548
REMARK  225  A    between atoms: _548  and  _549
REMARK  226  A    between atoms: _549  and  _550
REMARK  227  A    between atoms: _550  and  _551
REMARK  228  A    between atoms: _560  and  _562
REMARK  229  A    between atoms: _562  and  _563
REMARK  230  A    between atoms: _562  and  _565
REMARK  231  A    between atoms: _565  and  _566
REMARK                            x       y       z     vdW  Elec       q    Type
REMARK                         _______ _______ _______ _____ _____    ______ ____
ROOT
ATOM      1  O   HOH     1      20.731  34.265  20.381  0.00  0.00    +0.000 OA
ENDROOT
TORSDOF 0
REMARK  Name = ../refined-set-2016/2q5k/2q5k_pocket.pdb
REMARK  231 active torsions:
REMARK  status: ('A' for Active; 'I' for Inactive)
REMARK    1  A    between atoms: _1  and  _3
REMARK    2  A    between atoms: _3  and  _4
REMARK    3  A    between atoms: _3  and  _6
REMARK    4  A    between atoms: _6  and  _7
REMARK    5  A    between atoms: _7  and  _8
REMARK    6  A    between atoms: _8  and  _9
REMARK    7  A    between atoms: _18  and  _20
REMARK    8  A    between atoms: _20  and  _21
REMARK    9  A    between atoms: _20  and  _23
REMARK   10  A    between atoms: _23  and  _24
REMARK   11  A    between atoms: _27  and  _29
REMARK   12  A    between atoms: _29  and  _30
REMARK   13  A    between atoms: _29  and  _32
REMARK   14  A    between atoms: _32  and  _33
REMARK   15  A    between atoms: _36  and  _38
REMARK   16  A    between atoms: _38  and  _39
REMARK   17  A    between atoms: _38  and  _41
REMARK   18  A    between atoms: _41  and  _42
REMARK   19  A    between atoms: _45  and  _47
REMARK   20  A    between atoms: _47  and  _48
REMARK   21  A    between atoms: _47  and  _50
REMARK   22  A    between atoms: _50  and  _51
REMARK   23  A    between atoms: _54  and  _56
REMARK   24  A    between atoms: _56  and  _57
REMARK   25  A    between atoms: _59  and  _61
REMARK   26  A    between atoms: _61  and  _62
REMARK   27  A    between atoms: _65  and  _67
REMARK   28  A    between atoms: _67  and  _68
REMARK   29  A    between atoms: _67  and  _70
REMARK   30  A    between atoms: _70  and  _71
REMARK   31  A    between atoms: _74  and  _76
REMARK   32  A    between atoms: _76  and  _77
REMARK   33  A    between atoms: _76  and  _79
REMARK   34  A    between atoms: _79  and  _80
REMARK   35  A    between atoms: _83  and  _85
REMARK   36  A    between atoms: _85  and  _86
REMARK   37  A    between atoms: _85  and  _88
REMARK   38  A    between atoms: _88  and  _89
REMARK   39  A    between atoms: _92  and  _94
REMARK   40  A    between atoms: _94  and  _95
REMARK   41  A    between atoms: _94  and  _97
REMARK   42  A    between atoms: _100  and  _102
REMARK   43  A    between atoms: _102  and  _103
REMARK   44  A    between atoms: _102  and  _105
REMARK   45  A    between atoms: _105  and  _106
REMARK   46  A    between atoms: _106  and  _107
REMARK   47  A    between atoms: _107  and  _108
REMARK   48  A    between atoms: _108  and  _109
REMARK   49  A    between atoms: _113  and  _115
REMARK   50  A    between atoms: _115  and  _116
REMARK   51  A    between atoms: _115  and  _118
REMARK   52  A    between atoms: _118  and  _119
REMARK   53  A    between atoms: _119  and  _120
REMARK   54  A    between atoms: _122  and  _124
REMARK   55  A    between atoms: _124  and  _125
REMARK   56  A    between atoms: _124  and  _127
REMARK   57  A    between atoms: _127  and  _128
REMARK   58  A    between atoms: _131  and  _133
REMARK   59  A    between atoms: _133  and  _134
REMARK   60  A    between atoms: _136  and  _138
REMARK   61  A    between atoms: _138  and  _139
REMARK   62  A    between atoms: _141  and  _143
REMARK   63  A    between atoms: _143  and  _144
REMARK   64  A    between atoms: _143  and  _146
REMARK   65  A    between atoms: _146  and  _147
REMARK   66  A    between atoms: _150  and  _152
REMARK   67  A    between atoms: _152  and  _153
REMARK   68  A    between atoms: _155  and  _157
REMARK   69  A    between atoms: _157  and  _158
REMARK   70  A    between atoms: _160  and  _162
REMARK   71  A    between atoms: _162  and  _163
REMARK   72  A    between atoms: _162  and  _165
REMARK   73  A    between atoms: _165  and  _166
REMARK   74  A    between atoms: _172  and  _174
REMARK   75  A    between atoms: _174  and  _175
REMARK   76  A    between atoms: _174  and  _177
REMARK   77  A    between atoms: _177  and  _178
REMARK   78  A    between atoms: _181  and  _183
REMARK   79  A    between atoms: _183  and  _184
REMARK   80  A    between atoms: _183  and  _186
REMARK   81  A    between atoms: _186  and  _187
REMARK   82  A    between atoms: _191  and  _192
REMARK   83  A    between atoms: _197  and  _199
REMARK   84  A    between atoms: _199  and  _200
REMARK   85  A    between atoms: _199  and  _202
REMARK   86  A    between atoms: _202  and  _203
REMARK   87  A    between atoms: _207  and  _208
REMARK   88  A    between atoms: _213  and  _215
REMARK   89  A    between atoms: _215  and  _216
REMARK   90  A    between atoms: _215  and  _218
REMARK   91  A    between atoms: _221  and  _223
REMARK   92  A    between atoms: _223  and  _224
REMARK   93  A    between atoms: _223  and  _226
REMARK   94  A    between atoms: _226  and  _227
REMARK   95  A    between atoms: _232  and  _234
REMARK   96  A    between atoms: _234  and  _235
REMARK   97  A    between atoms: _234  and  _237
REMARK   98  A    between atoms: _237  and  _238
REMARK   99  A    between atoms: _241  and  _243
REMARK  100  A    between atoms: _243  and  _244
REMARK  101  A    between atoms: _243  and  _246
REMARK  102  A    between atoms: _246  and  _247
REMARK  103  A    between atoms: _250  and  _252
REMARK  104  A    between atoms: _252  and  _253
REMARK  105  A    between atoms: _255  and  _257
REMARK  106  A    between atoms: _257  and  _258
REMARK  107  A    between atoms: _257  and  _260
REMARK  108  A    between atoms: _260  and  _261
REMARK  109  A    between atoms: _261  and  _262
REMARK  110  A    between atoms: _262  and  _263
REMARK  111  A    between atoms: _272  and  _274
REMARK  112  A    between atoms: _274  and  _275
REMARK  113  A    between atoms: _274  and  _277
REMARK  114  A    between atoms: _277  and  _278
REMARK  115  A    between atoms: _278  and  _279
REMARK  116  A    between atoms: _279  and  _280
REMARK  117  A    between atoms: _289  and  _291
REMARK  118  A    between atoms: _291  and  _292
REMARK  119  A    between atoms: _291  and  _294
REMARK  120  A    between atoms: _294  and  _295
REMARK  121  A    between atoms: _298  and  _300
REMARK  122  A    between atoms: _300  and  _301
REMARK  123  A    between atoms: _300  and  _303
REMARK  124  A    between atoms: _303  and  _304
REMARK  125  A    between atoms: _307  and  _309
REMARK  126  A    between atoms: _309  and  _310
REMARK  127  A    between atoms: _309  and  _312
REMARK  128  A    between atoms: _312  and  _313
REMARK  129  A    between atoms: _316  and  _318
REMARK  130  A    between atoms: _318  and  _319
REMARK  131  A    between atoms: _318  and  _321
REMARK  132  A    between atoms: _321  and  _322
REMARK  133  A    between atoms: _325  and  _327
REMARK  134  A    between atoms: _327  and  _328
REMARK  135  A    between atoms: _330  and  _332
REMARK  136  A    between atoms: _332  and  _333
REMARK  137  A    between atoms: _336  and  _338
REMARK  138  A    between atoms: _338  and  _339
REMARK  139  A    between atoms: _338  and  _341
REMARK  140  A    between atoms: _341  and  _342
REMARK  141  A    between atoms: _345  and  _347
REMARK  142  A    between atoms: _347  and  _348
REMARK  143  A    between atoms: _347  and  _350
REMARK  144  A    between atoms: _350  and  _351
REMARK  145  A    between atoms: _354  and  _356
REMARK  146  A    between atoms: _356  and  _357
REMARK  147  A    between atoms: _356  and  _359
REMARK  148  A    between atoms: _359  and  _360
REMARK  149  A    between atoms: _363  and  _365
REMARK  150  A    between atoms: _365  and  _366
REMARK  151  A    between atoms: _365  and  _368
REMARK  152  A    between atoms: _371  and  _373
REMARK  153  A    between atoms: _373  and  _374
REMARK  154  A    between atoms: _373  and  _376
REMARK  155  A    between atoms: _376  and  _377
REMARK  156  A    between atoms: _380  and  _382
REMARK  157  A    between atoms: _382  and  _383
REMARK  158  A    between atoms: _382  and  _385
REMARK  159  A    between atoms: _385  and  _386
REMARK  160  A    between atoms: _386  and  _387
REMARK  161  A    between atoms: _387  and  _388
REMARK  162  A    between atoms: _388  and  _389
REMARK  163  A    between atoms: _393  and  _395
REMARK  164  A    between atoms: _395  and  _396
REMARK  165  A    between atoms: _395  and  _398
REMARK  166  A    between atoms: _398  and  _399
REMARK  167  A    between atoms: _399  and  _400
REMARK  168  A    between atoms: _402  and  _404
REMARK  169  A    between atoms: _404  and  _405
REMARK  170  A    between atoms: _404  and  _407
REMARK  171  A    between atoms: _407  and  _408
REMARK  172  A    between atoms: _411  and  _413
REMARK  173  A    between atoms: _413  and  _414
REMARK  174  A    between atoms: _416  and  _418
REMARK  175  A    between atoms: _418  and  _419
REMARK  176  A    between atoms: _421  and  _423
REMARK  177  A    between atoms: _423  and  _424
REMARK  178  A    between atoms: _423  and  _426
REMARK  179  A    between atoms: _426  and  _427
REMARK  180  A    between atoms: _430  and  _432
REMARK  181  A    between atoms: _432  and  _433
REMARK  182  A    between atoms: _435  and  _437
REMARK  183  A    between atoms: _437  and  _438
REMARK  184  A    between atoms: _440  and  _442
REMARK  185  A    between atoms: _442  and  _443
REMARK  186  A    between atoms: _442  and  _445
REMARK  187  A    between atoms: _445  and  _446
REMARK  188  A    between atoms: _452  and  _454
REMARK  189  A    between atoms: _454  and  _455
REMARK  190  A    between atoms: _454  and  _457
REMARK  191  A    between atoms: _457  and  _458
REMARK  192  A    between atoms: _461  and  _463
REMARK  193  A    between atoms: _463  and  _464
REMARK  194  A    between atoms: _463  and  _466
REMARK  195  A    between atoms: _469  and  _471
REMARK  196  A    between atoms: _471  and  _472
REMARK  197  A    between atoms: _471  and  _474
REMARK  198  A    between atoms: _474  and  _475
REMARK  199  A    between atoms: _479  and  _480
REMARK  200  A    between atoms: _485  and  _487
REMARK  201  A    between atoms: _487  and  _488
REMARK  202  A    between atoms: _487  and  _490
REMARK  203  A    between atoms: _490  and  _491
REMARK  204  A    between atoms: _495  and  _496
REMARK  205  A    between atoms: _501  and  _503
REMARK  206  A    between atoms: _503  and  _504
REMARK  207  A    between atoms: _503  and  _506
REMARK  208  A    between atoms: _509  and  _511
REMARK  209  A    between atoms: _511  and  _512
REMARK  210  A    between atoms: _511  and  _514
REMARK  211  A    between atoms: _514  and  _515
REMARK  212  A    between atoms: _520  and  _522
REMARK  213  A    between atoms: _522  and  _523
REMARK  214  A    between atoms: _522  and  _525
REMARK  215  A    between atoms: _525  and  _526
REMARK  216  A    between atoms: _529  and  _531
REMARK  217  A    between atoms: _531  and  _532
REMARK  218  A    between atoms: _531  and  _534
REMARK  219  A    between atoms: _534  and  _535
REMARK  220  A    between atoms: _538  and  _540
REMARK  221  A    between atoms: _540  and  _541
REMARK  222  A    between atoms: _543  and  _545
REMARK  223  A    between atoms: _545  and  _546
REMARK  224  A    between atoms: _545  and  _548
REMARK  225  A    between atoms: _548  and  _549
REMARK  226  A    between atoms: _549  and  _550
REMARK  227  A    between atoms: _550  and  _551
REMARK  228  A    between atoms: _560  and  _562
REMARK  229  A    between atoms: _562  and  _563
REMARK  230  A    between atoms: _562  and  _565
REMARK  231  A    between atoms: _565  and  _566
REMARK                            x       y       z     vdW  Elec       q    Type
REMARK                         _______ _______ _______ _____ _____    ______ ____
ROOT
ATOM      1  O   HOH     1      14.116  35.092  24.950  0.00  0.00    +0.000 OA
ENDROOT
TORSDOF 0
REMARK  Name = ../refined-set-2016/2q5k/2q5k_pocket.pdb
REMARK  231 active torsions:
REMARK  status: ('A' for Active; 'I' for Inactive)
REMARK    1  A    between atoms: _1  and  _3
REMARK    2  A    between atoms: _3  and  _4
REMARK    3  A    between atoms: _3  and  _6
REMARK    4  A    between atoms: _6  and  _7
REMARK    5  A    between atoms: _7  and  _8
REMARK    6  A    between atoms: _8  and  _9
REMARK    7  A    between atoms: _18  and  _20
REMARK    8  A    between atoms: _20  and  _21
REMARK    9  A    between atoms: _20  and  _23
REMARK   10  A    between atoms: _23  and  _24
REMARK   11  A    between atoms: _27  and  _29
REMARK   12  A    between atoms: _29  and  _30
REMARK   13  A    between atoms: _29  and  _32
REMARK   14  A    between atoms: _32  and  _33
REMARK   15  A    between atoms: _36  and  _38
REMARK   16  A    between atoms: _38  and  _39
REMARK   17  A    between atoms: _38  and  _41
REMARK   18  A    between atoms: _41  and  _42
REMARK   19  A    between atoms: _45  and  _47
REMARK   20  A    between atoms: _47  and  _48
REMARK   21  A    between atoms: _47  and  _50
REMARK   22  A    between atoms: _50  and  _51
REMARK   23  A    between atoms: _54  and  _56
REMARK   24  A    between atoms: _56  and  _57
REMARK   25  A    between atoms: _59  and  _61
REMARK   26  A    between atoms: _61  and  _62
REMARK   27  A    between atoms: _65  and  _67
REMARK   28  A    between atoms: _67  and  _68
REMARK   29  A    between atoms: _67  and  _70
REMARK   30  A    between atoms: _70  and  _71
REMARK   31  A    between atoms: _74  and  _76
REMARK   32  A    between atoms: _76  and  _77
REMARK   33  A    between atoms: _76  and  _79
REMARK   34  A    between atoms: _79  and  _80
REMARK   35  A    between atoms: _83  and  _85
REMARK   36  A    between atoms: _85  and  _86
REMARK   37  A    between atoms: _85  and  _88
REMARK   38  A    between atoms: _88  and  _89
REMARK   39  A    between atoms: _92  and  _94
REMARK   40  A    between atoms: _94  and  _95
REMARK   41  A    between atoms: _94  and  _97
REMARK   42  A    between atoms: _100  and  _102
REMARK   43  A    between atoms: _102  and  _103
REMARK   44  A    between atoms: _102  and  _105
REMARK   45  A    between atoms: _105  and  _106
REMARK   46  A    between atoms: _106  and  _107
REMARK   47  A    between atoms: _107  and  _108
REMARK   48  A    between atoms: _108  and  _109
REMARK   49  A    between atoms: _113  and  _115
REMARK   50  A    between atoms: _115  and  _116
REMARK   51  A    between atoms: _115  and  _118
REMARK   52  A    between atoms: _118  and  _119
REMARK   53  A    between atoms: _119  and  _120
REMARK   54  A    between atoms: _122  and  _124
REMARK   55  A    between atoms: _124  and  _125
REMARK   56  A    between atoms: _124  and  _127
REMARK   57  A    between atoms: _127  and  _128
REMARK   58  A    between atoms: _131  and  _133
REMARK   59  A    between atoms: _133  and  _134
REMARK   60  A    between atoms: _136  and  _138
REMARK   61  A    between atoms: _138  and  _139
REMARK   62  A    between atoms: _141  and  _143
REMARK   63  A    between atoms: _143  and  _144
REMARK   64  A    between atoms: _143  and  _146
REMARK   65  A    between atoms: _146  and  _147
REMARK   66  A    between atoms: _150  and  _152
REMARK   67  A    between atoms: _152  and  _153
REMARK   68  A    between atoms: _155  and  _157
REMARK   69  A    between atoms: _157  and  _158
REMARK   70  A    between atoms: _160  and  _162
REMARK   71  A    between atoms: _162  and  _163
REMARK   72  A    between atoms: _162  and  _165
REMARK   73  A    between atoms: _165  and  _166
REMARK   74  A    between atoms: _172  and  _174
REMARK   75  A    between atoms: _174  and  _175
REMARK   76  A    between atoms: _174  and  _177
REMARK   77  A    between atoms: _177  and  _178
REMARK   78  A    between atoms: _181  and  _183
REMARK   79  A    between atoms: _183  and  _184
REMARK   80  A    between atoms: _183  and  _186
REMARK   81  A    between atoms: _186  and  _187
REMARK   82  A    between atoms: _191  and  _192
REMARK   83  A    between atoms: _197  and  _199
REMARK   84  A    between atoms: _199  and  _200
REMARK   85  A    between atoms: _199  and  _202
REMARK   86  A    between atoms: _202  and  _203
REMARK   87  A    between atoms: _207  and  _208
REMARK   88  A    between atoms: _213  and  _215
REMARK   89  A    between atoms: _215  and  _216
REMARK   90  A    between atoms: _215  and  _218
REMARK   91  A    between atoms: _221  and  _223
REMARK   92  A    between atoms: _223  and  _224
REMARK   93  A    between atoms: _223  and  _226
REMARK   94  A    between atoms: _226  and  _227
REMARK   95  A    between atoms: _232  and  _234
REMARK   96  A    between atoms: _234  and  _235
REMARK   97  A    between atoms: _234  and  _237
REMARK   98  A    between atoms: _237  and  _238
REMARK   99  A    between atoms: _241  and  _243
REMARK  100  A    between atoms: _243  and  _244
REMARK  101  A    between atoms: _243  and  _246
REMARK  102  A    between atoms: _246  and  _247
REMARK  103  A    between atoms: _250  and  _252
REMARK  104  A    between atoms: _252  and  _253
REMARK  105  A    between atoms: _255  and  _257
REMARK  106  A    between atoms: _257  and  _258
REMARK  107  A    between atoms: _257  and  _260
REMARK  108  A    between atoms: _260  and  _261
REMARK  109  A    between atoms: _261  and  _262
REMARK  110  A    between atoms: _262  and  _263
REMARK  111  A    between atoms: _272  and  _274
REMARK  112  A    between atoms: _274  and  _275
REMARK  113  A    between atoms: _274  and  _277
REMARK  114  A    between atoms: _277  and  _278
REMARK  115  A    between atoms: _278  and  _279
REMARK  116  A    between atoms: _279  and  _280
REMARK  117  A    between atoms: _289  and  _291
REMARK  118  A    between atoms: _291  and  _292
REMARK  119  A    between atoms: _291  and  _294
REMARK  120  A    between atoms: _294  and  _295
REMARK  121  A    between atoms: _298  and  _300
REMARK  122  A    between atoms: _300  and  _301
REMARK  123  A    between atoms: _300  and  _303
REMARK  124  A    between atoms: _303  and  _304
REMARK  125  A    between atoms: _307  and  _309
REMARK  126  A    between atoms: _309  and  _310
REMARK  127  A    between atoms: _309  and  _312
REMARK  128  A    between atoms: _312  and  _313
REMARK  129  A    between atoms: _316  and  _318
REMARK  130  A    between atoms: _318  and  _319
REMARK  131  A    between atoms: _318  and  _321
REMARK  132  A    between atoms: _321  and  _322
REMARK  133  A    between atoms: _325  and  _327
REMARK  134  A    between atoms: _327  and  _328
REMARK  135  A    between atoms: _330  and  _332
REMARK  136  A    between atoms: _332  and  _333
REMARK  137  A    between atoms: _336  and  _338
REMARK  138  A    between atoms: _338  and  _339
REMARK  139  A    between atoms: _338  and  _341
REMARK  140  A    between atoms: _341  and  _342
REMARK  141  A    between atoms: _345  and  _347
REMARK  142  A    between atoms: _347  and  _348
REMARK  143  A    between atoms: _347  and  _350
REMARK  144  A    between atoms: _350  and  _351
REMARK  145  A    between atoms: _354  and  _356
REMARK  146  A    between atoms: _356  and  _357
REMARK  147  A    between atoms: _356  and  _359
REMARK  148  A    between atoms: _359  and  _360
REMARK  149  A    between atoms: _363  and  _365
REMARK  150  A    between atoms: _365  and  _366
REMARK  151  A    between atoms: _365  and  _368
REMARK  152  A    between atoms: _371  and  _373
REMARK  153  A    between atoms: _373  and  _374
REMARK  154  A    between atoms: _373  and  _376
REMARK  155  A    between atoms: _376  and  _377
REMARK  156  A    between atoms: _380  and  _382
REMARK  157  A    between atoms: _382  and  _383
REMARK  158  A    between atoms: _382  and  _385
REMARK  159  A    between atoms: _385  and  _386
REMARK  160  A    between atoms: _386  and  _387
REMARK  161  A    between atoms: _387  and  _388
REMARK  162  A    between atoms: _388  and  _389
REMARK  163  A    between atoms: _393  and  _395
REMARK  164  A    between atoms: _395  and  _396
REMARK  165  A    between atoms: _395  and  _398
REMARK  166  A    between atoms: _398  and  _399
REMARK  167  A    between atoms: _399  and  _400
REMARK  168  A    between atoms: _402  and  _404
REMARK  169  A    between atoms: _404  and  _405
REMARK  170  A    between atoms: _404  and  _407
REMARK  171  A    between atoms: _407  and  _408
REMARK  172  A    between atoms: _411  and  _413
REMARK  173  A    between atoms: _413  and  _414
REMARK  174  A    between atoms: _416  and  _418
REMARK  175  A    between atoms: _418  and  _419
REMARK  176  A    between atoms: _421  and  _423
REMARK  177  A    between atoms: _423  and  _424
REMARK  178  A    between atoms: _423  and  _426
REMARK  179  A    between atoms: _426  and  _427
REMARK  180  A    between atoms: _430  and  _432
REMARK  181  A    between atoms: _432  and  _433
REMARK  182  A    between atoms: _435  and  _437
REMARK  183  A    between atoms: _437  and  _438
REMARK  184  A    between atoms: _440  and  _442
REMARK  185  A    between atoms: _442  and  _443
REMARK  186  A    between atoms: _442  and  _445
REMARK  187  A    between atoms: _445  and  _446
REMARK  188  A    between atoms: _452  and  _454
REMARK  189  A    between atoms: _454  and  _455
REMARK  190  A    between atoms: _454  and  _457
REMARK  191  A    between atoms: _457  and  _458
REMARK  192  A    between atoms: _461  and  _463
REMARK  193  A    between atoms: _463  and  _464
REMARK  194  A    between atoms: _463  and  _466
REMARK  195  A    between atoms: _469  and  _471
REMARK  196  A    between atoms: _471  and  _472
REMARK  197  A    between atoms: _471  and  _474
REMARK  198  A    between atoms: _474  and  _475
REMARK  199  A    between atoms: _479  and  _480
REMARK  200  A    between atoms: _485  and  _487
REMARK  201  A    between atoms: _487  and  _488
REMARK  202  A    between atoms: _487  and  _490
REMARK  203  A    between atoms: _490  and  _491
REMARK  204  A    between atoms: _495  and  _496
REMARK  205  A    between atoms: _501  and  _503
REMARK  206  A    between atoms: _503  and  _504
REMARK  207  A    between atoms: _503  and  _506
REMARK  208  A    between atoms: _509  and  _511
REMARK  209  A    between atoms: _511  and  _512
REMARK  210  A    between atoms: _511  and  _514
REMARK  211  A    between atoms: _514  and  _515
REMARK  212  A    between atoms: _520  and  _522
REMARK  213  A    between atoms: _522  and  _523
REMARK  214  A    between atoms: _522  and  _525
REMARK  215  A    between atoms: _525  and  _526
REMARK  216  A    between atoms: _529  and  _531
REMARK  217  A    between atoms: _531  and  _532
REMARK  218  A    between atoms: _531  and  _534
REMARK  219  A    between atoms: _534  and  _535
REMARK  220  A    between atoms: _538  and  _540
REMARK  221  A    between atoms: _540  and  _541
REMARK  222  A    between atoms: _543  and  _545
REMARK  223  A    between atoms: _545  and  _546
REMARK  224  A    between atoms: _545  and  _548
REMARK  225  A    between atoms: _548  and  _549
REMARK  226  A    between atoms: _549  and  _550
REMARK  227  A    between atoms: _550  and  _551
REMARK  228  A    between atoms: _560  and  _562
REMARK  229  A    between atoms: _562  and  _563
REMARK  230  A    between atoms: _562  and  _565
REMARK  231  A    between atoms: _565  and  _566
REMARK                            x       y       z     vdW  Elec       q    Type
REMARK                         _______ _______ _______ _____ _____    ______ ____
ROOT
ATOM      1  O   HOH     1      25.978  37.312   8.255  0.00  0.00    +0.000 OA
ENDROOT
TORSDOF 0
REMARK  Name = ../refined-set-2016/2q5k/2q5k_pocket.pdb
REMARK  231 active torsions:
REMARK  status: ('A' for Active; 'I' for Inactive)
REMARK    1  A    between atoms: _1  and  _3
REMARK    2  A    between atoms: _3  and  _4
REMARK    3  A    between atoms: _3  and  _6
REMARK    4  A    between atoms: _6  and  _7
REMARK    5  A    between atoms: _7  and  _8
REMARK    6  A    between atoms: _8  and  _9
REMARK    7  A    between atoms: _18  and  _20
REMARK    8  A    between atoms: _20  and  _21
REMARK    9  A    between atoms: _20  and  _23
REMARK   10  A    between atoms: _23  and  _24
REMARK   11  A    between atoms: _27  and  _29
REMARK   12  A    between atoms: _29  and  _30
REMARK   13  A    between atoms: _29  and  _32
REMARK   14  A    between atoms: _32  and  _33
REMARK   15  A    between atoms: _36  and  _38
REMARK   16  A    between atoms: _38  and  _39
REMARK   17  A    between atoms: _38  and  _41
REMARK   18  A    between atoms: _41  and  _42
REMARK   19  A    between atoms: _45  and  _47
REMARK   20  A    between atoms: _47  and  _48
REMARK   21  A    between atoms: _47  and  _50
REMARK   22  A    between atoms: _50  and  _51
REMARK   23  A    between atoms: _54  and  _56
REMARK   24  A    between atoms: _56  and  _57
REMARK   25  A    between atoms: _59  and  _61
REMARK   26  A    between atoms: _61  and  _62
REMARK   27  A    between atoms: _65  and  _67
REMARK   28  A    between atoms: _67  and  _68
REMARK   29  A    between atoms: _67  and  _70
REMARK   30  A    between atoms: _70  and  _71
REMARK   31  A    between atoms: _74  and  _76
REMARK   32  A    between atoms: _76  and  _77
REMARK   33  A    between atoms: _76  and  _79
REMARK   34  A    between atoms: _79  and  _80
REMARK   35  A    between atoms: _83  and  _85
REMARK   36  A    between atoms: _85  and  _86
REMARK   37  A    between atoms: _85  and  _88
REMARK   38  A    between atoms: _88  and  _89
REMARK   39  A    between atoms: _92  and  _94
REMARK   40  A    between atoms: _94  and  _95
REMARK   41  A    between atoms: _94  and  _97
REMARK   42  A    between atoms: _100  and  _102
REMARK   43  A    between atoms: _102  and  _103
REMARK   44  A    between atoms: _102  and  _105
REMARK   45  A    between atoms: _105  and  _106
REMARK   46  A    between atoms: _106  and  _107
REMARK   47  A    between atoms: _107  and  _108
REMARK   48  A    between atoms: _108  and  _109
REMARK   49  A    between atoms: _113  and  _115
REMARK   50  A    between atoms: _115  and  _116
REMARK   51  A    between atoms: _115  and  _118
REMARK   52  A    between atoms: _118  and  _119
REMARK   53  A    between atoms: _119  and  _120
REMARK   54  A    between atoms: _122  and  _124
REMARK   55  A    between atoms: _124  and  _125
REMARK   56  A    between atoms: _124  and  _127
REMARK   57  A    between atoms: _127  and  _128
REMARK   58  A    between atoms: _131  and  _133
REMARK   59  A    between atoms: _133  and  _134
REMARK   60  A    between atoms: _136  and  _138
REMARK   61  A    between atoms: _138  and  _139
REMARK   62  A    between atoms: _141  and  _143
REMARK   63  A    between atoms: _143  and  _144
REMARK   64  A    between atoms: _143  and  _146
REMARK   65  A    between atoms: _146  and  _147
REMARK   66  A    between atoms: _150  and  _152
REMARK   67  A    between atoms: _152  and  _153
REMARK   68  A    between atoms: _155  and  _157
REMARK   69  A    between atoms: _157  and  _158
REMARK   70  A    between atoms: _160  and  _162
REMARK   71  A    between atoms: _162  and  _163
REMARK   72  A    between atoms: _162  and  _165
REMARK   73  A    between atoms: _165  and  _166
REMARK   74  A    between atoms: _172  and  _174
REMARK   75  A    between atoms: _174  and  _175
REMARK   76  A    between atoms: _174  and  _177
REMARK   77  A    between atoms: _177  and  _178
REMARK   78  A    between atoms: _181  and  _183
REMARK   79  A    between atoms: _183  and  _184
REMARK   80  A    between atoms: _183  and  _186
REMARK   81  A    between atoms: _186  and  _187
REMARK   82  A    between atoms: _191  and  _192
REMARK   83  A    between atoms: _197  and  _199
REMARK   84  A    between atoms: _199  and  _200
REMARK   85  A    between atoms: _199  and  _202
REMARK   86  A    between atoms: _202  and  _203
REMARK   87  A    between atoms: _207  and  _208
REMARK   88  A    between atoms: _213  and  _215
REMARK   89  A    between atoms: _215  and  _216
REMARK   90  A    between atoms: _215  and  _218
REMARK   91  A    between atoms: _221  and  _223
REMARK   92  A    between atoms: _223  and  _224
REMARK   93  A    between atoms: _223  and  _226
REMARK   94  A    between atoms: _226  and  _227
REMARK   95  A    between atoms: _232  and  _234
REMARK   96  A    between atoms: _234  and  _235
REMARK   97  A    between atoms: _234  and  _237
REMARK   98  A    between atoms: _237  and  _238
REMARK   99  A    between atoms: _241  and  _243
REMARK  100  A    between atoms: _243  and  _244
REMARK  101  A    between atoms: _243  and  _246
REMARK  102  A    between atoms: _246  and  _247
REMARK  103  A    between atoms: _250  and  _252
REMARK  104  A    between atoms: _252  and  _253
REMARK  105  A    between atoms: _255  and  _257
REMARK  106  A    between atoms: _257  and  _258
REMARK  107  A    between atoms: _257  and  _260
REMARK  108  A    between atoms: _260  and  _261
REMARK  109  A    between atoms: _261  and  _262
REMARK  110  A    between atoms: _262  and  _263
REMARK  111  A    between atoms: _272  and  _274
REMARK  112  A    between atoms: _274  and  _275
REMARK  113  A    between atoms: _274  and  _277
REMARK  114  A    between atoms: _277  and  _278
REMARK  115  A    between atoms: _278  and  _279
REMARK  116  A    between atoms: _279  and  _280
REMARK  117  A    between atoms: _289  and  _291
REMARK  118  A    between atoms: _291  and  _292
REMARK  119  A    between atoms: _291  and  _294
REMARK  120  A    between atoms: _294  and  _295
REMARK  121  A    between atoms: _298  and  _300
REMARK  122  A    between atoms: _300  and  _301
REMARK  123  A    between atoms: _300  and  _303
REMARK  124  A    between atoms: _303  and  _304
REMARK  125  A    between atoms: _307  and  _309
REMARK  126  A    between atoms: _309  and  _310
REMARK  127  A    between atoms: _309  and  _312
REMARK  128  A    between atoms: _312  and  _313
REMARK  129  A    between atoms: _316  and  _318
REMARK  130  A    between atoms: _318  and  _319
REMARK  131  A    between atoms: _318  and  _321
REMARK  132  A    between atoms: _321  and  _322
REMARK  133  A    between atoms: _325  and  _327
REMARK  134  A    between atoms: _327  and  _328
REMARK  135  A    between atoms: _330  and  _332
REMARK  136  A    between atoms: _332  and  _333
REMARK  137  A    between atoms: _336  and  _338
REMARK  138  A    between atoms: _338  and  _339
REMARK  139  A    between atoms: _338  and  _341
REMARK  140  A    between atoms: _341  and  _342
REMARK  141  A    between atoms: _345  and  _347
REMARK  142  A    between atoms: _347  and  _348
REMARK  143  A    between atoms: _347  and  _350
REMARK  144  A    between atoms: _350  and  _351
REMARK  145  A    between atoms: _354  and  _356
REMARK  146  A    between atoms: _356  and  _357
REMARK  147  A    between atoms: _356  and  _359
REMARK  148  A    between atoms: _359  and  _360
REMARK  149  A    between atoms: _363  and  _365
REMARK  150  A    between atoms: _365  and  _366
REMARK  151  A    between atoms: _365  and  _368
REMARK  152  A    between atoms: _371  and  _373
REMARK  153  A    between atoms: _373  and  _374
REMARK  154  A    between atoms: _373  and  _376
REMARK  155  A    between atoms: _376  and  _377
REMARK  156  A    between atoms: _380  and  _382
REMARK  157  A    between atoms: _382  and  _383
REMARK  158  A    between atoms: _382  and  _385
REMARK  159  A    between atoms: _385  and  _386
REMARK  160  A    between atoms: _386  and  _387
REMARK  161  A    between atoms: _387  and  _388
REMARK  162  A    between atoms: _388  and  _389
REMARK  163  A    between atoms: _393  and  _395
REMARK  164  A    between atoms: _395  and  _396
REMARK  165  A    between atoms: _395  and  _398
REMARK  166  A    between atoms: _398  and  _399
REMARK  167  A    between atoms: _399  and  _400
REMARK  168  A    between atoms: _402  and  _404
REMARK  169  A    between atoms: _404  and  _405
REMARK  170  A    between atoms: _404  and  _407
REMARK  171  A    between atoms: _407  and  _408
REMARK  172  A    between atoms: _411  and  _413
REMARK  173  A    between atoms: _413  and  _414
REMARK  174  A    between atoms: _416  and  _418
REMARK  175  A    between atoms: _418  and  _419
REMARK  176  A    between atoms: _421  and  _423
REMARK  177  A    between atoms: _423  and  _424
REMARK  178  A    between atoms: _423  and  _426
REMARK  179  A    between atoms: _426  and  _427
REMARK  180  A    between atoms: _430  and  _432
REMARK  181  A    between atoms: _432  and  _433
REMARK  182  A    between atoms: _435  and  _437
REMARK  183  A    between atoms: _437  and  _438
REMARK  184  A    between atoms: _440  and  _442
REMARK  185  A    between atoms: _442  and  _443
REMARK  186  A    between atoms: _442  and  _445
REMARK  187  A    between atoms: _445  and  _446
REMARK  188  A    between atoms: _452  and  _454
REMARK  189  A    between atoms: _454  and  _455
REMARK  190  A    between atoms: _454  and  _457
REMARK  191  A    between atoms: _457  and  _458
REMARK  192  A    between atoms: _461  and  _463
REMARK  193  A    between atoms: _463  and  _464
REMARK  194  A    between atoms: _463  and  _466
REMARK  195  A    between atoms: _469  and  _471
REMARK  196  A    between atoms: _471  and  _472
REMARK  197  A    between atoms: _471  and  _474
REMARK  198  A    between atoms: _474  and  _475
REMARK  199  A    between atoms: _479  and  _480
REMARK  200  A    between atoms: _485  and  _487
REMARK  201  A    between atoms: _487  and  _488
REMARK  202  A    between atoms: _487  and  _490
REMARK  203  A    between atoms: _490  and  _491
REMARK  204  A    between atoms: _495  and  _496
REMARK  205  A    between atoms: _501  and  _503
REMARK  206  A    between atoms: _503  and  _504
REMARK  207  A    between atoms: _503  and  _506
REMARK  208  A    between atoms: _509  and  _511
REMARK  209  A    between atoms: _511  and  _512
REMARK  210  A    between atoms: _511  and  _514
REMARK  211  A    between atoms: _514  and  _515
REMARK  212  A    between atoms: _520  and  _522
REMARK  213  A    between atoms: _522  and  _523
REMARK  214  A    between atoms: _522  and  _525
REMARK  215  A    between atoms: _525  and  _526
REMARK  216  A    between atoms: _529  and  _531
REMARK  217  A    between atoms: _531  and  _532
REMARK  218  A    between atoms: _531  and  _534
REMARK  219  A    between atoms: _534  and  _535
REMARK  220  A    between atoms: _538  and  _540
REMARK  221  A    between atoms: _540  and  _541
REMARK  222  A    between atoms: _543  and  _545
REMARK  223  A    between atoms: _545  and  _546
REMARK  224  A    between atoms: _545  and  _548
REMARK  225  A    between atoms: _548  and  _549
REMARK  226  A    between atoms: _549  and  _550
REMARK  227  A    between atoms: _550  and  _551
REMARK  228  A    between atoms: _560  and  _562
REMARK  229  A    between atoms: _562  and  _563
REMARK  230  A    between atoms: _562  and  _565
REMARK  231  A    between atoms: _565  and  _566
REMARK                            x       y       z     vdW  Elec       q    Type
REMARK                         _______ _______ _______ _____ _____    ______ ____
ROOT
ATOM      1  O   HOH     1       8.789  34.268  19.966  0.00  0.00    +0.000 OA
ENDROOT
TORSDOF 0
REMARK  Name = ../refined-set-2016/2q5k/2q5k_pocket.pdb
REMARK  231 active torsions:
REMARK  status: ('A' for Active; 'I' for Inactive)
REMARK    1  A    between atoms: _1  and  _3
REMARK    2  A    between atoms: _3  and  _4
REMARK    3  A    between atoms: _3  and  _6
REMARK    4  A    between atoms: _6  and  _7
REMARK    5  A    between atoms: _7  and  _8
REMARK    6  A    between atoms: _8  and  _9
REMARK    7  A    between atoms: _18  and  _20
REMARK    8  A    between atoms: _20  and  _21
REMARK    9  A    between atoms: _20  and  _23
REMARK   10  A    between atoms: _23  and  _24
REMARK   11  A    between atoms: _27  and  _29
REMARK   12  A    between atoms: _29  and  _30
REMARK   13  A    between atoms: _29  and  _32
REMARK   14  A    between atoms: _32  and  _33
REMARK   15  A    between atoms: _36  and  _38
REMARK   16  A    between atoms: _38  and  _39
REMARK   17  A    between atoms: _38  and  _41
REMARK   18  A    between atoms: _41  and  _42
REMARK   19  A    between atoms: _45  and  _47
REMARK   20  A    between atoms: _47  and  _48
REMARK   21  A    between atoms: _47  and  _50
REMARK   22  A    between atoms: _50  and  _51
REMARK   23  A    between atoms: _54  and  _56
REMARK   24  A    between atoms: _56  and  _57
REMARK   25  A    between atoms: _59  and  _61
REMARK   26  A    between atoms: _61  and  _62
REMARK   27  A    between atoms: _65  and  _67
REMARK   28  A    between atoms: _67  and  _68
REMARK   29  A    between atoms: _67  and  _70
REMARK   30  A    between atoms: _70  and  _71
REMARK   31  A    between atoms: _74  and  _76
REMARK   32  A    between atoms: _76  and  _77
REMARK   33  A    between atoms: _76  and  _79
REMARK   34  A    between atoms: _79  and  _80
REMARK   35  A    between atoms: _83  and  _85
REMARK   36  A    between atoms: _85  and  _86
REMARK   37  A    between atoms: _85  and  _88
REMARK   38  A    between atoms: _88  and  _89
REMARK   39  A    between atoms: _92  and  _94
REMARK   40  A    between atoms: _94  and  _95
REMARK   41  A    between atoms: _94  and  _97
REMARK   42  A    between atoms: _100  and  _102
REMARK   43  A    between atoms: _102  and  _103
REMARK   44  A    between atoms: _102  and  _105
REMARK   45  A    between atoms: _105  and  _106
REMARK   46  A    between atoms: _106  and  _107
REMARK   47  A    between atoms: _107  and  _108
REMARK   48  A    between atoms: _108  and  _109
REMARK   49  A    between atoms: _113  and  _115
REMARK   50  A    between atoms: _115  and  _116
REMARK   51  A    between atoms: _115  and  _118
REMARK   52  A    between atoms: _118  and  _119
REMARK   53  A    between atoms: _119  and  _120
REMARK   54  A    between atoms: _122  and  _124
REMARK   55  A    between atoms: _124  and  _125
REMARK   56  A    between atoms: _124  and  _127
REMARK   57  A    between atoms: _127  and  _128
REMARK   58  A    between atoms: _131  and  _133
REMARK   59  A    between atoms: _133  and  _134
REMARK   60  A    between atoms: _136  and  _138
REMARK   61  A    between atoms: _138  and  _139
REMARK   62  A    between atoms: _141  and  _143
REMARK   63  A    between atoms: _143  and  _144
REMARK   64  A    between atoms: _143  and  _146
REMARK   65  A    between atoms: _146  and  _147
REMARK   66  A    between atoms: _150  and  _152
REMARK   67  A    between atoms: _152  and  _153
REMARK   68  A    between atoms: _155  and  _157
REMARK   69  A    between atoms: _157  and  _158
REMARK   70  A    between atoms: _160  and  _162
REMARK   71  A    between atoms: _162  and  _163
REMARK   72  A    between atoms: _162  and  _165
REMARK   73  A    between atoms: _165  and  _166
REMARK   74  A    between atoms: _172  and  _174
REMARK   75  A    between atoms: _174  and  _175
REMARK   76  A    between atoms: _174  and  _177
REMARK   77  A    between atoms: _177  and  _178
REMARK   78  A    between atoms: _181  and  _183
REMARK   79  A    between atoms: _183  and  _184
REMARK   80  A    between atoms: _183  and  _186
REMARK   81  A    between atoms: _186  and  _187
REMARK   82  A    between atoms: _191  and  _192
REMARK   83  A    between atoms: _197  and  _199
REMARK   84  A    between atoms: _199  and  _200
REMARK   85  A    between atoms: _199  and  _202
REMARK   86  A    between atoms: _202  and  _203
REMARK   87  A    between atoms: _207  and  _208
REMARK   88  A    between atoms: _213  and  _215
REMARK   89  A    between atoms: _215  and  _216
REMARK   90  A    between atoms: _215  and  _218
REMARK   91  A    between atoms: _221  and  _223
REMARK   92  A    between atoms: _223  and  _224
REMARK   93  A    between atoms: _223  and  _226
REMARK   94  A    between atoms: _226  and  _227
REMARK   95  A    between atoms: _232  and  _234
REMARK   96  A    between atoms: _234  and  _235
REMARK   97  A    between atoms: _234  and  _237
REMARK   98  A    between atoms: _237  and  _238
REMARK   99  A    between atoms: _241  and  _243
REMARK  100  A    between atoms: _243  and  _244
REMARK  101  A    between atoms: _243  and  _246
REMARK  102  A    between atoms: _246  and  _247
REMARK  103  A    between atoms: _250  and  _252
REMARK  104  A    between atoms: _252  and  _253
REMARK  105  A    between atoms: _255  and  _257
REMARK  106  A    between atoms: _257  and  _258
REMARK  107  A    between atoms: _257  and  _260
REMARK  108  A    between atoms: _260  and  _261
REMARK  109  A    between atoms: _261  and  _262
REMARK  110  A    between atoms: _262  and  _263
REMARK  111  A    between atoms: _272  and  _274
REMARK  112  A    between atoms: _274  and  _275
REMARK  113  A    between atoms: _274  and  _277
REMARK  114  A    between atoms: _277  and  _278
REMARK  115  A    between atoms: _278  and  _279
REMARK  116  A    between atoms: _279  and  _280
REMARK  117  A    between atoms: _289  and  _291
REMARK  118  A    between atoms: _291  and  _292
REMARK  119  A    between atoms: _291  and  _294
REMARK  120  A    between atoms: _294  and  _295
REMARK  121  A    between atoms: _298  and  _300
REMARK  122  A    between atoms: _300  and  _301
REMARK  123  A    between atoms: _300  and  _303
REMARK  124  A    between atoms: _303  and  _304
REMARK  125  A    between atoms: _307  and  _309
REMARK  126  A    between atoms: _309  and  _310
REMARK  127  A    between atoms: _309  and  _312
REMARK  128  A    between atoms: _312  and  _313
REMARK  129  A    between atoms: _316  and  _318
REMARK  130  A    between atoms: _318  and  _319
REMARK  131  A    between atoms: _318  and  _321
REMARK  132  A    between atoms: _321  and  _322
REMARK  133  A    between atoms: _325  and  _327
REMARK  134  A    between atoms: _327  and  _328
REMARK  135  A    between atoms: _330  and  _332
REMARK  136  A    between atoms: _332  and  _333
REMARK  137  A    between atoms: _336  and  _338
REMARK  138  A    between atoms: _338  and  _339
REMARK  139  A    between atoms: _338  and  _341
REMARK  140  A    between atoms: _341  and  _342
REMARK  141  A    between atoms: _345  and  _347
REMARK  142  A    between atoms: _347  and  _348
REMARK  143  A    between atoms: _347  and  _350
REMARK  144  A    between atoms: _350  and  _351
REMARK  145  A    between atoms: _354  and  _356
REMARK  146  A    between atoms: _356  and  _357
REMARK  147  A    between atoms: _356  and  _359
REMARK  148  A    between atoms: _359  and  _360
REMARK  149  A    between atoms: _363  and  _365
REMARK  150  A    between atoms: _365  and  _366
REMARK  151  A    between atoms: _365  and  _368
REMARK  152  A    between atoms: _371  and  _373
REMARK  153  A    between atoms: _373  and  _374
REMARK  154  A    between atoms: _373  and  _376
REMARK  155  A    between atoms: _376  and  _377
REMARK  156  A    between atoms: _380  and  _382
REMARK  157  A    between atoms: _382  and  _383
REMARK  158  A    between atoms: _382  and  _385
REMARK  159  A    between atoms: _385  and  _386
REMARK  160  A    between atoms: _386  and  _387
REMARK  161  A    between atoms: _387  and  _388
REMARK  162  A    between atoms: _388  and  _389
REMARK  163  A    between atoms: _393  and  _395
REMARK  164  A    between atoms: _395  and  _396
REMARK  165  A    between atoms: _395  and  _398
REMARK  166  A    between atoms: _398  and  _399
REMARK  167  A    between atoms: _399  and  _400
REMARK  168  A    between atoms: _402  and  _404
REMARK  169  A    between atoms: _404  and  _405
REMARK  170  A    between atoms: _404  and  _407
REMARK  171  A    between atoms: _407  and  _408
REMARK  172  A    between atoms: _411  and  _413
REMARK  173  A    between atoms: _413  and  _414
REMARK  174  A    between atoms: _416  and  _418
REMARK  175  A    between atoms: _418  and  _419
REMARK  176  A    between atoms: _421  and  _423
REMARK  177  A    between atoms: _423  and  _424
REMARK  178  A    between atoms: _423  and  _426
REMARK  179  A    between atoms: _426  and  _427
REMARK  180  A    between atoms: _430  and  _432
REMARK  181  A    between atoms: _432  and  _433
REMARK  182  A    between atoms: _435  and  _437
REMARK  183  A    between atoms: _437  and  _438
REMARK  184  A    between atoms: _440  and  _442
REMARK  185  A    between atoms: _442  and  _443
REMARK  186  A    between atoms: _442  and  _445
REMARK  187  A    between atoms: _445  and  _446
REMARK  188  A    between atoms: _452  and  _454
REMARK  189  A    between atoms: _454  and  _455
REMARK  190  A    between atoms: _454  and  _457
REMARK  191  A    between atoms: _457  and  _458
REMARK  192  A    between atoms: _461  and  _463
REMARK  193  A    between atoms: _463  and  _464
REMARK  194  A    between atoms: _463  and  _466
REMARK  195  A    between atoms: _469  and  _471
REMARK  196  A    between atoms: _471  and  _472
REMARK  197  A    between atoms: _471  and  _474
REMARK  198  A    between atoms: _474  and  _475
REMARK  199  A    between atoms: _479  and  _480
REMARK  200  A    between atoms: _485  and  _487
REMARK  201  A    between atoms: _487  and  _488
REMARK  202  A    between atoms: _487  and  _490
REMARK  203  A    between atoms: _490  and  _491
REMARK  204  A    between atoms: _495  and  _496
REMARK  205  A    between atoms: _501  and  _503
REMARK  206  A    between atoms: _503  and  _504
REMARK  207  A    between atoms: _503  and  _506
REMARK  208  A    between atoms: _509  and  _511
REMARK  209  A    between atoms: _511  and  _512
REMARK  210  A    between atoms: _511  and  _514
REMARK  211  A    between atoms: _514  and  _515
REMARK  212  A    between atoms: _520  and  _522
REMARK  213  A    between atoms: _522  and  _523
REMARK  214  A    between atoms: _522  and  _525
REMARK  215  A    between atoms: _525  and  _526
REMARK  216  A    between atoms: _529  and  _531
REMARK  217  A    between atoms: _531  and  _532
REMARK  218  A    between atoms: _531  and  _534
REMARK  219  A    between atoms: _534  and  _535
REMARK  220  A    between atoms: _538  and  _540
REMARK  221  A    between atoms: _540  and  _541
REMARK  222  A    between atoms: _543  and  _545
REMARK  223  A    between atoms: _545  and  _546
REMARK  224  A    between atoms: _545  and  _548
REMARK  225  A    between atoms: _548  and  _549
REMARK  226  A    between atoms: _549  and  _550
REMARK  227  A    between atoms: _550  and  _551
REMARK  228  A    between atoms: _560  and  _562
REMARK  229  A    between atoms: _562  and  _563
REMARK  230  A    between atoms: _562  and  _565
REMARK  231  A    between atoms: _565  and  _566
REMARK                            x       y       z     vdW  Elec       q    Type
REMARK                         _______ _______ _______ _____ _____    ______ ____
ROOT
ATOM      1  O   HOH     1      20.094  32.403  22.366  0.00  0.00    +0.000 OA
ENDROOT
TORSDOF 0
REMARK  Name = ../refined-set-2016/2q5k/2q5k_pocket.pdb
REMARK  231 active torsions:
REMARK  status: ('A' for Active; 'I' for Inactive)
REMARK    1  A    between atoms: _1  and  _3
REMARK    2  A    between atoms: _3  and  _4
REMARK    3  A    between atoms: _3  and  _6
REMARK    4  A    between atoms: _6  and  _7
REMARK    5  A    between atoms: _7  and  _8
REMARK    6  A    between atoms: _8  and  _9
REMARK    7  A    between atoms: _18  and  _20
REMARK    8  A    between atoms: _20  and  _21
REMARK    9  A    between atoms: _20  and  _23
REMARK   10  A    between atoms: _23  and  _24
REMARK   11  A    between atoms: _27  and  _29
REMARK   12  A    between atoms: _29  and  _30
REMARK   13  A    between atoms: _29  and  _32
REMARK   14  A    between atoms: _32  and  _33
REMARK   15  A    between atoms: _36  and  _38
REMARK   16  A    between atoms: _38  and  _39
REMARK   17  A    between atoms: _38  and  _41
REMARK   18  A    between atoms: _41  and  _42
REMARK   19  A    between atoms: _45  and  _47
REMARK   20  A    between atoms: _47  and  _48
REMARK   21  A    between atoms: _47  and  _50
REMARK   22  A    between atoms: _50  and  _51
REMARK   23  A    between atoms: _54  and  _56
REMARK   24  A    between atoms: _56  and  _57
REMARK   25  A    between atoms: _59  and  _61
REMARK   26  A    between atoms: _61  and  _62
REMARK   27  A    between atoms: _65  and  _67
REMARK   28  A    between atoms: _67  and  _68
REMARK   29  A    between atoms: _67  and  _70
REMARK   30  A    between atoms: _70  and  _71
REMARK   31  A    between atoms: _74  and  _76
REMARK   32  A    between atoms: _76  and  _77
REMARK   33  A    between atoms: _76  and  _79
REMARK   34  A    between atoms: _79  and  _80
REMARK   35  A    between atoms: _83  and  _85
REMARK   36  A    between atoms: _85  and  _86
REMARK   37  A    between atoms: _85  and  _88
REMARK   38  A    between atoms: _88  and  _89
REMARK   39  A    between atoms: _92  and  _94
REMARK   40  A    between atoms: _94  and  _95
REMARK   41  A    between atoms: _94  and  _97
REMARK   42  A    between atoms: _100  and  _102
REMARK   43  A    between atoms: _102  and  _103
REMARK   44  A    between atoms: _102  and  _105
REMARK   45  A    between atoms: _105  and  _106
REMARK   46  A    between atoms: _106  and  _107
REMARK   47  A    between atoms: _107  and  _108
REMARK   48  A    between atoms: _108  and  _109
REMARK   49  A    between atoms: _113  and  _115
REMARK   50  A    between atoms: _115  and  _116
REMARK   51  A    between atoms: _115  and  _118
REMARK   52  A    between atoms: _118  and  _119
REMARK   53  A    between atoms: _119  and  _120
REMARK   54  A    between atoms: _122  and  _124
REMARK   55  A    between atoms: _124  and  _125
REMARK   56  A    between atoms: _124  and  _127
REMARK   57  A    between atoms: _127  and  _128
REMARK   58  A    between atoms: _131  and  _133
REMARK   59  A    between atoms: _133  and  _134
REMARK   60  A    between atoms: _136  and  _138
REMARK   61  A    between atoms: _138  and  _139
REMARK   62  A    between atoms: _141  and  _143
REMARK   63  A    between atoms: _143  and  _144
REMARK   64  A    between atoms: _143  and  _146
REMARK   65  A    between atoms: _146  and  _147
REMARK   66  A    between atoms: _150  and  _152
REMARK   67  A    between atoms: _152  and  _153
REMARK   68  A    between atoms: _155  and  _157
REMARK   69  A    between atoms: _157  and  _158
REMARK   70  A    between atoms: _160  and  _162
REMARK   71  A    between atoms: _162  and  _163
REMARK   72  A    between atoms: _162  and  _165
REMARK   73  A    between atoms: _165  and  _166
REMARK   74  A    between atoms: _172  and  _174
REMARK   75  A    between atoms: _174  and  _175
REMARK   76  A    between atoms: _174  and  _177
REMARK   77  A    between atoms: _177  and  _178
REMARK   78  A    between atoms: _181  and  _183
REMARK   79  A    between atoms: _183  and  _184
REMARK   80  A    between atoms: _183  and  _186
REMARK   81  A    between atoms: _186  and  _187
REMARK   82  A    between atoms: _191  and  _192
REMARK   83  A    between atoms: _197  and  _199
REMARK   84  A    between atoms: _199  and  _200
REMARK   85  A    between atoms: _199  and  _202
REMARK   86  A    between atoms: _202  and  _203
REMARK   87  A    between atoms: _207  and  _208
REMARK   88  A    between atoms: _213  and  _215
REMARK   89  A    between atoms: _215  and  _216
REMARK   90  A    between atoms: _215  and  _218
REMARK   91  A    between atoms: _221  and  _223
REMARK   92  A    between atoms: _223  and  _224
REMARK   93  A    between atoms: _223  and  _226
REMARK   94  A    between atoms: _226  and  _227
REMARK   95  A    between atoms: _232  and  _234
REMARK   96  A    between atoms: _234  and  _235
REMARK   97  A    between atoms: _234  and  _237
REMARK   98  A    between atoms: _237  and  _238
REMARK   99  A    between atoms: _241  and  _243
REMARK  100  A    between atoms: _243  and  _244
REMARK  101  A    between atoms: _243  and  _246
REMARK  102  A    between atoms: _246  and  _247
REMARK  103  A    between atoms: _250  and  _252
REMARK  104  A    between atoms: _252  and  _253
REMARK  105  A    between atoms: _255  and  _257
REMARK  106  A    between atoms: _257  and  _258
REMARK  107  A    between atoms: _257  and  _260
REMARK  108  A    between atoms: _260  and  _261
REMARK  109  A    between atoms: _261  and  _262
REMARK  110  A    between atoms: _262  and  _263
REMARK  111  A    between atoms: _272  and  _274
REMARK  112  A    between atoms: _274  and  _275
REMARK  113  A    between atoms: _274  and  _277
REMARK  114  A    between atoms: _277  and  _278
REMARK  115  A    between atoms: _278  and  _279
REMARK  116  A    between atoms: _279  and  _280
REMARK  117  A    between atoms: _289  and  _291
REMARK  118  A    between atoms: _291  and  _292
REMARK  119  A    between atoms: _291  and  _294
REMARK  120  A    between atoms: _294  and  _295
REMARK  121  A    between atoms: _298  and  _300
REMARK  122  A    between atoms: _300  and  _301
REMARK  123  A    between atoms: _300  and  _303
REMARK  124  A    between atoms: _303  and  _304
REMARK  125  A    between atoms: _307  and  _309
REMARK  126  A    between atoms: _309  and  _310
REMARK  127  A    between atoms: _309  and  _312
REMARK  128  A    between atoms: _312  and  _313
REMARK  129  A    between atoms: _316  and  _318
REMARK  130  A    between atoms: _318  and  _319
REMARK  131  A    between atoms: _318  and  _321
REMARK  132  A    between atoms: _321  and  _322
REMARK  133  A    between atoms: _325  and  _327
REMARK  134  A    between atoms: _327  and  _328
REMARK  135  A    between atoms: _330  and  _332
REMARK  136  A    between atoms: _332  and  _333
REMARK  137  A    between atoms: _336  and  _338
REMARK  138  A    between atoms: _338  and  _339
REMARK  139  A    between atoms: _338  and  _341
REMARK  140  A    between atoms: _341  and  _342
REMARK  141  A    between atoms: _345  and  _347
REMARK  142  A    between atoms: _347  and  _348
REMARK  143  A    between atoms: _347  and  _350
REMARK  144  A    between atoms: _350  and  _351
REMARK  145  A    between atoms: _354  and  _356
REMARK  146  A    between atoms: _356  and  _357
REMARK  147  A    between atoms: _356  and  _359
REMARK  148  A    between atoms: _359  and  _360
REMARK  149  A    between atoms: _363  and  _365
REMARK  150  A    between atoms: _365  and  _366
REMARK  151  A    between atoms: _365  and  _368
REMARK  152  A    between atoms: _371  and  _373
REMARK  153  A    between atoms: _373  and  _374
REMARK  154  A    between atoms: _373  and  _376
REMARK  155  A    between atoms: _376  and  _377
REMARK  156  A    between atoms: _380  and  _382
REMARK  157  A    between atoms: _382  and  _383
REMARK  158  A    between atoms: _382  and  _385
REMARK  159  A    between atoms: _385  and  _386
REMARK  160  A    between atoms: _386  and  _387
REMARK  161  A    between atoms: _387  and  _388
REMARK  162  A    between atoms: _388  and  _389
REMARK  163  A    between atoms: _393  and  _395
REMARK  164  A    between atoms: _395  and  _396
REMARK  165  A    between atoms: _395  and  _398
REMARK  166  A    between atoms: _398  and  _399
REMARK  167  A    between atoms: _399  and  _400
REMARK  168  A    between atoms: _402  and  _404
REMARK  169  A    between atoms: _404  and  _405
REMARK  170  A    between atoms: _404  and  _407
REMARK  171  A    between atoms: _407  and  _408
REMARK  172  A    between atoms: _411  and  _413
REMARK  173  A    between atoms: _413  and  _414
REMARK  174  A    between atoms: _416  and  _418
REMARK  175  A    between atoms: _418  and  _419
REMARK  176  A    between atoms: _421  and  _423
REMARK  177  A    between atoms: _423  and  _424
REMARK  178  A    between atoms: _423  and  _426
REMARK  179  A    between atoms: _426  and  _427
REMARK  180  A    between atoms: _430  and  _432
REMARK  181  A    between atoms: _432  and  _433
REMARK  182  A    between atoms: _435  and  _437
REMARK  183  A    between atoms: _437  and  _438
REMARK  184  A    between atoms: _440  and  _442
REMARK  185  A    between atoms: _442  and  _443
REMARK  186  A    between atoms: _442  and  _445
REMARK  187  A    between atoms: _445  and  _446
REMARK  188  A    between atoms: _452  and  _454
REMARK  189  A    between atoms: _454  and  _455
REMARK  190  A    between atoms: _454  and  _457
REMARK  191  A    between atoms: _457  and  _458
REMARK  192  A    between atoms: _461  and  _463
REMARK  193  A    between atoms: _463  and  _464
REMARK  194  A    between atoms: _463  and  _466
REMARK  195  A    between atoms: _469  and  _471
REMARK  196  A    between atoms: _471  and  _472
REMARK  197  A    between atoms: _471  and  _474
REMARK  198  A    between atoms: _474  and  _475
REMARK  199  A    between atoms: _479  and  _480
REMARK  200  A    between atoms: _485  and  _487
REMARK  201  A    between atoms: _487  and  _488
REMARK  202  A    between atoms: _487  and  _490
REMARK  203  A    between atoms: _490  and  _491
REMARK  204  A    between atoms: _495  and  _496
REMARK  205  A    between atoms: _501  and  _503
REMARK  206  A    between atoms: _503  and  _504
REMARK  207  A    between atoms: _503  and  _506
REMARK  208  A    between atoms: _509  and  _511
REMARK  209  A    between atoms: _511  and  _512
REMARK  210  A    between atoms: _511  and  _514
REMARK  211  A    between atoms: _514  and  _515
REMARK  212  A    between atoms: _520  and  _522
REMARK  213  A    between atoms: _522  and  _523
REMARK  214  A    between atoms: _522  and  _525
REMARK  215  A    between atoms: _525  and  _526
REMARK  216  A    between atoms: _529  and  _531
REMARK  217  A    between atoms: _531  and  _532
REMARK  218  A    between atoms: _531  and  _534
REMARK  219  A    between atoms: _534  and  _535
REMARK  220  A    between atoms: _538  and  _540
REMARK  221  A    between atoms: _540  and  _541
REMARK  222  A    between atoms: _543  and  _545
REMARK  223  A    between atoms: _545  and  _546
REMARK  224  A    between atoms: _545  and  _548
REMARK  225  A    between atoms: _548  and  _549
REMARK  226  A    between atoms: _549  and  _550
REMARK  227  A    between atoms: _550  and  _551
REMARK  228  A    between atoms: _560  and  _562
REMARK  229  A    between atoms: _562  and  _563
REMARK  230  A    between atoms: _562  and  _565
REMARK  231  A    between atoms: _565  and  _566
REMARK                            x       y       z     vdW  Elec       q    Type
REMARK                         _______ _______ _______ _____ _____    ______ ____
ROOT
ATOM      1  O   HOH     1      17.192  39.336  15.920  0.00  0.00    +0.000 OA
ENDROOT
TORSDOF 0
REMARK  Name = ../refined-set-2016/2q5k/2q5k_pocket.pdb
REMARK  231 active torsions:
REMARK  status: ('A' for Active; 'I' for Inactive)
REMARK    1  A    between atoms: _1  and  _3
REMARK    2  A    between atoms: _3  and  _4
REMARK    3  A    between atoms: _3  and  _6
REMARK    4  A    between atoms: _6  and  _7
REMARK    5  A    between atoms: _7  and  _8
REMARK    6  A    between atoms: _8  and  _9
REMARK    7  A    between atoms: _18  and  _20
REMARK    8  A    between atoms: _20  and  _21
REMARK    9  A    between atoms: _20  and  _23
REMARK   10  A    between atoms: _23  and  _24
REMARK   11  A    between atoms: _27  and  _29
REMARK   12  A    between atoms: _29  and  _30
REMARK   13  A    between atoms: _29  and  _32
REMARK   14  A    between atoms: _32  and  _33
REMARK   15  A    between atoms: _36  and  _38
REMARK   16  A    between atoms: _38  and  _39
REMARK   17  A    between atoms: _38  and  _41
REMARK   18  A    between atoms: _41  and  _42
REMARK   19  A    between atoms: _45  and  _47
REMARK   20  A    between atoms: _47  and  _48
REMARK   21  A    between atoms: _47  and  _50
REMARK   22  A    between atoms: _50  and  _51
REMARK   23  A    between atoms: _54  and  _56
REMARK   24  A    between atoms: _56  and  _57
REMARK   25  A    between atoms: _59  and  _61
REMARK   26  A    between atoms: _61  and  _62
REMARK   27  A    between atoms: _65  and  _67
REMARK   28  A    between atoms: _67  and  _68
REMARK   29  A    between atoms: _67  and  _70
REMARK   30  A    between atoms: _70  and  _71
REMARK   31  A    between atoms: _74  and  _76
REMARK   32  A    between atoms: _76  and  _77
REMARK   33  A    between atoms: _76  and  _79
REMARK   34  A    between atoms: _79  and  _80
REMARK   35  A    between atoms: _83  and  _85
REMARK   36  A    between atoms: _85  and  _86
REMARK   37  A    between atoms: _85  and  _88
REMARK   38  A    between atoms: _88  and  _89
REMARK   39  A    between atoms: _92  and  _94
REMARK   40  A    between atoms: _94  and  _95
REMARK   41  A    between atoms: _94  and  _97
REMARK   42  A    between atoms: _100  and  _102
REMARK   43  A    between atoms: _102  and  _103
REMARK   44  A    between atoms: _102  and  _105
REMARK   45  A    between atoms: _105  and  _106
REMARK   46  A    between atoms: _106  and  _107
REMARK   47  A    between atoms: _107  and  _108
REMARK   48  A    between atoms: _108  and  _109
REMARK   49  A    between atoms: _113  and  _115
REMARK   50  A    between atoms: _115  and  _116
REMARK   51  A    between atoms: _115  and  _118
REMARK   52  A    between atoms: _118  and  _119
REMARK   53  A    between atoms: _119  and  _120
REMARK   54  A    between atoms: _122  and  _124
REMARK   55  A    between atoms: _124  and  _125
REMARK   56  A    between atoms: _124  and  _127
REMARK   57  A    between atoms: _127  and  _128
REMARK   58  A    between atoms: _131  and  _133
REMARK   59  A    between atoms: _133  and  _134
REMARK   60  A    between atoms: _136  and  _138
REMARK   61  A    between atoms: _138  and  _139
REMARK   62  A    between atoms: _141  and  _143
REMARK   63  A    between atoms: _143  and  _144
REMARK   64  A    between atoms: _143  and  _146
REMARK   65  A    between atoms: _146  and  _147
REMARK   66  A    between atoms: _150  and  _152
REMARK   67  A    between atoms: _152  and  _153
REMARK   68  A    between atoms: _155  and  _157
REMARK   69  A    between atoms: _157  and  _158
REMARK   70  A    between atoms: _160  and  _162
REMARK   71  A    between atoms: _162  and  _163
REMARK   72  A    between atoms: _162  and  _165
REMARK   73  A    between atoms: _165  and  _166
REMARK   74  A    between atoms: _172  and  _174
REMARK   75  A    between atoms: _174  and  _175
REMARK   76  A    between atoms: _174  and  _177
REMARK   77  A    between atoms: _177  and  _178
REMARK   78  A    between atoms: _181  and  _183
REMARK   79  A    between atoms: _183  and  _184
REMARK   80  A    between atoms: _183  and  _186
REMARK   81  A    between atoms: _186  and  _187
REMARK   82  A    between atoms: _191  and  _192
REMARK   83  A    between atoms: _197  and  _199
REMARK   84  A    between atoms: _199  and  _200
REMARK   85  A    between atoms: _199  and  _202
REMARK   86  A    between atoms: _202  and  _203
REMARK   87  A    between atoms: _207  and  _208
REMARK   88  A    between atoms: _213  and  _215
REMARK   89  A    between atoms: _215  and  _216
REMARK   90  A    between atoms: _215  and  _218
REMARK   91  A    between atoms: _221  and  _223
REMARK   92  A    between atoms: _223  and  _224
REMARK   93  A    between atoms: _223  and  _226
REMARK   94  A    between atoms: _226  and  _227
REMARK   95  A    between atoms: _232  and  _234
REMARK   96  A    between atoms: _234  and  _235
REMARK   97  A    between atoms: _234  and  _237
REMARK   98  A    between atoms: _237  and  _238
REMARK   99  A    between atoms: _241  and  _243
REMARK  100  A    between atoms: _243  and  _244
REMARK  101  A    between atoms: _243  and  _246
REMARK  102  A    between atoms: _246  and  _247
REMARK  103  A    between atoms: _250  and  _252
REMARK  104  A    between atoms: _252  and  _253
REMARK  105  A    between atoms: _255  and  _257
REMARK  106  A    between atoms: _257  and  _258
REMARK  107  A    between atoms: _257  and  _260
REMARK  108  A    between atoms: _260  and  _261
REMARK  109  A    between atoms: _261  and  _262
REMARK  110  A    between atoms: _262  and  _263
REMARK  111  A    between atoms: _272  and  _274
REMARK  112  A    between atoms: _274  and  _275
REMARK  113  A    between atoms: _274  and  _277
REMARK  114  A    between atoms: _277  and  _278
REMARK  115  A    between atoms: _278  and  _279
REMARK  116  A    between atoms: _279  and  _280
REMARK  117  A    between atoms: _289  and  _291
REMARK  118  A    between atoms: _291  and  _292
REMARK  119  A    between atoms: _291  and  _294
REMARK  120  A    between atoms: _294  and  _295
REMARK  121  A    between atoms: _298  and  _300
REMARK  122  A    between atoms: _300  and  _301
REMARK  123  A    between atoms: _300  and  _303
REMARK  124  A    between atoms: _303  and  _304
REMARK  125  A    between atoms: _307  and  _309
REMARK  126  A    between atoms: _309  and  _310
REMARK  127  A    between atoms: _309  and  _312
REMARK  128  A    between atoms: _312  and  _313
REMARK  129  A    between atoms: _316  and  _318
REMARK  130  A    between atoms: _318  and  _319
REMARK  131  A    between atoms: _318  and  _321
REMARK  132  A    between atoms: _321  and  _322
REMARK  133  A    between atoms: _325  and  _327
REMARK  134  A    between atoms: _327  and  _328
REMARK  135  A    between atoms: _330  and  _332
REMARK  136  A    between atoms: _332  and  _333
REMARK  137  A    between atoms: _336  and  _338
REMARK  138  A    between atoms: _338  and  _339
REMARK  139  A    between atoms: _338  and  _341
REMARK  140  A    between atoms: _341  and  _342
REMARK  141  A    between atoms: _345  and  _347
REMARK  142  A    between atoms: _347  and  _348
REMARK  143  A    between atoms: _347  and  _350
REMARK  144  A    between atoms: _350  and  _351
REMARK  145  A    between atoms: _354  and  _356
REMARK  146  A    between atoms: _356  and  _357
REMARK  147  A    between atoms: _356  and  _359
REMARK  148  A    between atoms: _359  and  _360
REMARK  149  A    between atoms: _363  and  _365
REMARK  150  A    between atoms: _365  and  _366
REMARK  151  A    between atoms: _365  and  _368
REMARK  152  A    between atoms: _371  and  _373
REMARK  153  A    between atoms: _373  and  _374
REMARK  154  A    between atoms: _373  and  _376
REMARK  155  A    between atoms: _376  and  _377
REMARK  156  A    between atoms: _380  and  _382
REMARK  157  A    between atoms: _382  and  _383
REMARK  158  A    between atoms: _382  and  _385
REMARK  159  A    between atoms: _385  and  _386
REMARK  160  A    between atoms: _386  and  _387
REMARK  161  A    between atoms: _387  and  _388
REMARK  162  A    between atoms: _388  and  _389
REMARK  163  A    between atoms: _393  and  _395
REMARK  164  A    between atoms: _395  and  _396
REMARK  165  A    between atoms: _395  and  _398
REMARK  166  A    between atoms: _398  and  _399
REMARK  167  A    between atoms: _399  and  _400
REMARK  168  A    between atoms: _402  and  _404
REMARK  169  A    between atoms: _404  and  _405
REMARK  170  A    between atoms: _404  and  _407
REMARK  171  A    between atoms: _407  and  _408
REMARK  172  A    between atoms: _411  and  _413
REMARK  173  A    between atoms: _413  and  _414
REMARK  174  A    between atoms: _416  and  _418
REMARK  175  A    between atoms: _418  and  _419
REMARK  176  A    between atoms: _421  and  _423
REMARK  177  A    between atoms: _423  and  _424
REMARK  178  A    between atoms: _423  and  _426
REMARK  179  A    between atoms: _426  and  _427
REMARK  180  A    between atoms: _430  and  _432
REMARK  181  A    between atoms: _432  and  _433
REMARK  182  A    between atoms: _435  and  _437
REMARK  183  A    between atoms: _437  and  _438
REMARK  184  A    between atoms: _440  and  _442
REMARK  185  A    between atoms: _442  and  _443
REMARK  186  A    between atoms: _442  and  _445
REMARK  187  A    between atoms: _445  and  _446
REMARK  188  A    between atoms: _452  and  _454
REMARK  189  A    between atoms: _454  and  _455
REMARK  190  A    between atoms: _454  and  _457
REMARK  191  A    between atoms: _457  and  _458
REMARK  192  A    between atoms: _461  and  _463
REMARK  193  A    between atoms: _463  and  _464
REMARK  194  A    between atoms: _463  and  _466
REMARK  195  A    between atoms: _469  and  _471
REMARK  196  A    between atoms: _471  and  _472
REMARK  197  A    between atoms: _471  and  _474
REMARK  198  A    between atoms: _474  and  _475
REMARK  199  A    between atoms: _479  and  _480
REMARK  200  A    between atoms: _485  and  _487
REMARK  201  A    between atoms: _487  and  _488
REMARK  202  A    between atoms: _487  and  _490
REMARK  203  A    between atoms: _490  and  _491
REMARK  204  A    between atoms: _495  and  _496
REMARK  205  A    between atoms: _501  and  _503
REMARK  206  A    between atoms: _503  and  _504
REMARK  207  A    between atoms: _503  and  _506
REMARK  208  A    between atoms: _509  and  _511
REMARK  209  A    between atoms: _511  and  _512
REMARK  210  A    between atoms: _511  and  _514
REMARK  211  A    between atoms: _514  and  _515
REMARK  212  A    between atoms: _520  and  _522
REMARK  213  A    between atoms: _522  and  _523
REMARK  214  A    between atoms: _522  and  _525
REMARK  215  A    between atoms: _525  and  _526
REMARK  216  A    between atoms: _529  and  _531
REMARK  217  A    between atoms: _531  and  _532
REMARK  218  A    between atoms: _531  and  _534
REMARK  219  A    between atoms: _534  and  _535
REMARK  220  A    between atoms: _538  and  _540
REMARK  221  A    between atoms: _540  and  _541
REMARK  222  A    between atoms: _543  and  _545
REMARK  223  A    between atoms: _545  and  _546
REMARK  224  A    between atoms: _545  and  _548
REMARK  225  A    between atoms: _548  and  _549
REMARK  226  A    between atoms: _549  and  _550
REMARK  227  A    between atoms: _550  and  _551
REMARK  228  A    between atoms: _560  and  _562
REMARK  229  A    between atoms: _562  and  _563
REMARK  230  A    between atoms: _562  and  _565
REMARK  231  A    between atoms: _565  and  _566
REMARK                            x       y       z     vdW  Elec       q    Type
REMARK                         _______ _______ _______ _____ _____    ______ ____
ROOT
ATOM      1  O   HOH     1      19.318  37.859  15.707  0.00  0.00    +0.000 OA
ENDROOT
TORSDOF 0
REMARK  Name = ../refined-set-2016/2q5k/2q5k_pocket.pdb
REMARK  231 active torsions:
REMARK  status: ('A' for Active; 'I' for Inactive)
REMARK    1  A    between atoms: _1  and  _3
REMARK    2  A    between atoms: _3  and  _4
REMARK    3  A    between atoms: _3  and  _6
REMARK    4  A    between atoms: _6  and  _7
REMARK    5  A    between atoms: _7  and  _8
REMARK    6  A    between atoms: _8  and  _9
REMARK    7  A    between atoms: _18  and  _20
REMARK    8  A    between atoms: _20  and  _21
REMARK    9  A    between atoms: _20  and  _23
REMARK   10  A    between atoms: _23  and  _24
REMARK   11  A    between atoms: _27  and  _29
REMARK   12  A    between atoms: _29  and  _30
REMARK   13  A    between atoms: _29  and  _32
REMARK   14  A    between atoms: _32  and  _33
REMARK   15  A    between atoms: _36  and  _38
REMARK   16  A    between atoms: _38  and  _39
REMARK   17  A    between atoms: _38  and  _41
REMARK   18  A    between atoms: _41  and  _42
REMARK   19  A    between atoms: _45  and  _47
REMARK   20  A    between atoms: _47  and  _48
REMARK   21  A    between atoms: _47  and  _50
REMARK   22  A    between atoms: _50  and  _51
REMARK   23  A    between atoms: _54  and  _56
REMARK   24  A    between atoms: _56  and  _57
REMARK   25  A    between atoms: _59  and  _61
REMARK   26  A    between atoms: _61  and  _62
REMARK   27  A    between atoms: _65  and  _67
REMARK   28  A    between atoms: _67  and  _68
REMARK   29  A    between atoms: _67  and  _70
REMARK   30  A    between atoms: _70  and  _71
REMARK   31  A    between atoms: _74  and  _76
REMARK   32  A    between atoms: _76  and  _77
REMARK   33  A    between atoms: _76  and  _79
REMARK   34  A    between atoms: _79  and  _80
REMARK   35  A    between atoms: _83  and  _85
REMARK   36  A    between atoms: _85  and  _86
REMARK   37  A    between atoms: _85  and  _88
REMARK   38  A    between atoms: _88  and  _89
REMARK   39  A    between atoms: _92  and  _94
REMARK   40  A    between atoms: _94  and  _95
REMARK   41  A    between atoms: _94  and  _97
REMARK   42  A    between atoms: _100  and  _102
REMARK   43  A    between atoms: _102  and  _103
REMARK   44  A    between atoms: _102  and  _105
REMARK   45  A    between atoms: _105  and  _106
REMARK   46  A    between atoms: _106  and  _107
REMARK   47  A    between atoms: _107  and  _108
REMARK   48  A    between atoms: _108  and  _109
REMARK   49  A    between atoms: _113  and  _115
REMARK   50  A    between atoms: _115  and  _116
REMARK   51  A    between atoms: _115  and  _118
REMARK   52  A    between atoms: _118  and  _119
REMARK   53  A    between atoms: _119  and  _120
REMARK   54  A    between atoms: _122  and  _124
REMARK   55  A    between atoms: _124  and  _125
REMARK   56  A    between atoms: _124  and  _127
REMARK   57  A    between atoms: _127  and  _128
REMARK   58  A    between atoms: _131  and  _133
REMARK   59  A    between atoms: _133  and  _134
REMARK   60  A    between atoms: _136  and  _138
REMARK   61  A    between atoms: _138  and  _139
REMARK   62  A    between atoms: _141  and  _143
REMARK   63  A    between atoms: _143  and  _144
REMARK   64  A    between atoms: _143  and  _146
REMARK   65  A    between atoms: _146  and  _147
REMARK   66  A    between atoms: _150  and  _152
REMARK   67  A    between atoms: _152  and  _153
REMARK   68  A    between atoms: _155  and  _157
REMARK   69  A    between atoms: _157  and  _158
REMARK   70  A    between atoms: _160  and  _162
REMARK   71  A    between atoms: _162  and  _163
REMARK   72  A    between atoms: _162  and  _165
REMARK   73  A    between atoms: _165  and  _166
REMARK   74  A    between atoms: _172  and  _174
REMARK   75  A    between atoms: _174  and  _175
REMARK   76  A    between atoms: _174  and  _177
REMARK   77  A    between atoms: _177  and  _178
REMARK   78  A    between atoms: _181  and  _183
REMARK   79  A    between atoms: _183  and  _184
REMARK   80  A    between atoms: _183  and  _186
REMARK   81  A    between atoms: _186  and  _187
REMARK   82  A    between atoms: _191  and  _192
REMARK   83  A    between atoms: _197  and  _199
REMARK   84  A    between atoms: _199  and  _200
REMARK   85  A    between atoms: _199  and  _202
REMARK   86  A    between atoms: _202  and  _203
REMARK   87  A    between atoms: _207  and  _208
REMARK   88  A    between atoms: _213  and  _215
REMARK   89  A    between atoms: _215  and  _216
REMARK   90  A    between atoms: _215  and  _218
REMARK   91  A    between atoms: _221  and  _223
REMARK   92  A    between atoms: _223  and  _224
REMARK   93  A    between atoms: _223  and  _226
REMARK   94  A    between atoms: _226  and  _227
REMARK   95  A    between atoms: _232  and  _234
REMARK   96  A    between atoms: _234  and  _235
REMARK   97  A    between atoms: _234  and  _237
REMARK   98  A    between atoms: _237  and  _238
REMARK   99  A    between atoms: _241  and  _243
REMARK  100  A    between atoms: _243  and  _244
REMARK  101  A    between atoms: _243  and  _246
REMARK  102  A    between atoms: _246  and  _247
REMARK  103  A    between atoms: _250  and  _252
REMARK  104  A    between atoms: _252  and  _253
REMARK  105  A    between atoms: _255  and  _257
REMARK  106  A    between atoms: _257  and  _258
REMARK  107  A    between atoms: _257  and  _260
REMARK  108  A    between atoms: _260  and  _261
REMARK  109  A    between atoms: _261  and  _262
REMARK  110  A    between atoms: _262  and  _263
REMARK  111  A    between atoms: _272  and  _274
REMARK  112  A    between atoms: _274  and  _275
REMARK  113  A    between atoms: _274  and  _277
REMARK  114  A    between atoms: _277  and  _278
REMARK  115  A    between atoms: _278  and  _279
REMARK  116  A    between atoms: _279  and  _280
REMARK  117  A    between atoms: _289  and  _291
REMARK  118  A    between atoms: _291  and  _292
REMARK  119  A    between atoms: _291  and  _294
REMARK  120  A    between atoms: _294  and  _295
REMARK  121  A    between atoms: _298  and  _300
REMARK  122  A    between atoms: _300  and  _301
REMARK  123  A    between atoms: _300  and  _303
REMARK  124  A    between atoms: _303  and  _304
REMARK  125  A    between atoms: _307  and  _309
REMARK  126  A    between atoms: _309  and  _310
REMARK  127  A    between atoms: _309  and  _312
REMARK  128  A    between atoms: _312  and  _313
REMARK  129  A    between atoms: _316  and  _318
REMARK  130  A    between atoms: _318  and  _319
REMARK  131  A    between atoms: _318  and  _321
REMARK  132  A    between atoms: _321  and  _322
REMARK  133  A    between atoms: _325  and  _327
REMARK  134  A    between atoms: _327  and  _328
REMARK  135  A    between atoms: _330  and  _332
REMARK  136  A    between atoms: _332  and  _333
REMARK  137  A    between atoms: _336  and  _338
REMARK  138  A    between atoms: _338  and  _339
REMARK  139  A    between atoms: _338  and  _341
REMARK  140  A    between atoms: _341  and  _342
REMARK  141  A    between atoms: _345  and  _347
REMARK  142  A    between atoms: _347  and  _348
REMARK  143  A    between atoms: _347  and  _350
REMARK  144  A    between atoms: _350  and  _351
REMARK  145  A    between atoms: _354  and  _356
REMARK  146  A    between atoms: _356  and  _357
REMARK  147  A    between atoms: _356  and  _359
REMARK  148  A    between atoms: _359  and  _360
REMARK  149  A    between atoms: _363  and  _365
REMARK  150  A    between atoms: _365  and  _366
REMARK  151  A    between atoms: _365  and  _368
REMARK  152  A    between atoms: _371  and  _373
REMARK  153  A    between atoms: _373  and  _374
REMARK  154  A    between atoms: _373  and  _376
REMARK  155  A    between atoms: _376  and  _377
REMARK  156  A    between atoms: _380  and  _382
REMARK  157  A    between atoms: _382  and  _383
REMARK  158  A    between atoms: _382  and  _385
REMARK  159  A    between atoms: _385  and  _386
REMARK  160  A    between atoms: _386  and  _387
REMARK  161  A    between atoms: _387  and  _388
REMARK  162  A    between atoms: _388  and  _389
REMARK  163  A    between atoms: _393  and  _395
REMARK  164  A    between atoms: _395  and  _396
REMARK  165  A    between atoms: _395  and  _398
REMARK  166  A    between atoms: _398  and  _399
REMARK  167  A    between atoms: _399  and  _400
REMARK  168  A    between atoms: _402  and  _404
REMARK  169  A    between atoms: _404  and  _405
REMARK  170  A    between atoms: _404  and  _407
REMARK  171  A    between atoms: _407  and  _408
REMARK  172  A    between atoms: _411  and  _413
REMARK  173  A    between atoms: _413  and  _414
REMARK  174  A    between atoms: _416  and  _418
REMARK  175  A    between atoms: _418  and  _419
REMARK  176  A    between atoms: _421  and  _423
REMARK  177  A    between atoms: _423  and  _424
REMARK  178  A    between atoms: _423  and  _426
REMARK  179  A    between atoms: _426  and  _427
REMARK  180  A    between atoms: _430  and  _432
REMARK  181  A    between atoms: _432  and  _433
REMARK  182  A    between atoms: _435  and  _437
REMARK  183  A    between atoms: _437  and  _438
REMARK  184  A    between atoms: _440  and  _442
REMARK  185  A    between atoms: _442  and  _443
REMARK  186  A    between atoms: _442  and  _445
REMARK  187  A    between atoms: _445  and  _446
REMARK  188  A    between atoms: _452  and  _454
REMARK  189  A    between atoms: _454  and  _455
REMARK  190  A    between atoms: _454  and  _457
REMARK  191  A    between atoms: _457  and  _458
REMARK  192  A    between atoms: _461  and  _463
REMARK  193  A    between atoms: _463  and  _464
REMARK  194  A    between atoms: _463  and  _466
REMARK  195  A    between atoms: _469  and  _471
REMARK  196  A    between atoms: _471  and  _472
REMARK  197  A    between atoms: _471  and  _474
REMARK  198  A    between atoms: _474  and  _475
REMARK  199  A    between atoms: _479  and  _480
REMARK  200  A    between atoms: _485  and  _487
REMARK  201  A    between atoms: _487  and  _488
REMARK  202  A    between atoms: _487  and  _490
REMARK  203  A    between atoms: _490  and  _491
REMARK  204  A    between atoms: _495  and  _496
REMARK  205  A    between atoms: _501  and  _503
REMARK  206  A    between atoms: _503  and  _504
REMARK  207  A    between atoms: _503  and  _506
REMARK  208  A    between atoms: _509  and  _511
REMARK  209  A    between atoms: _511  and  _512
REMARK  210  A    between atoms: _511  and  _514
REMARK  211  A    between atoms: _514  and  _515
REMARK  212  A    between atoms: _520  and  _522
REMARK  213  A    between atoms: _522  and  _523
REMARK  214  A    between atoms: _522  and  _525
REMARK  215  A    between atoms: _525  and  _526
REMARK  216  A    between atoms: _529  and  _531
REMARK  217  A    between atoms: _531  and  _532
REMARK  218  A    between atoms: _531  and  _534
REMARK  219  A    between atoms: _534  and  _535
REMARK  220  A    between atoms: _538  and  _540
REMARK  221  A    between atoms: _540  and  _541
REMARK  222  A    between atoms: _543  and  _545
REMARK  223  A    between atoms: _545  and  _546
REMARK  224  A    between atoms: _545  and  _548
REMARK  225  A    between atoms: _548  and  _549
REMARK  226  A    between atoms: _549  and  _550
REMARK  227  A    between atoms: _550  and  _551
REMARK  228  A    between atoms: _560  and  _562
REMARK  229  A    between atoms: _562  and  _563
REMARK  230  A    between atoms: _562  and  _565
REMARK  231  A    between atoms: _565  and  _566
REMARK                            x       y       z     vdW  Elec       q    Type
REMARK                         _______ _______ _______ _____ _____    ______ ____
ROOT
ATOM      1  O   HOH     1      21.683  39.034  14.844  0.00  0.00    +0.000 OA
ENDROOT
TORSDOF 0
REMARK  Name = ../refined-set-2016/2q5k/2q5k_pocket.pdb
REMARK  231 active torsions:
REMARK  status: ('A' for Active; 'I' for Inactive)
REMARK    1  A    between atoms: _1  and  _3
REMARK    2  A    between atoms: _3  and  _4
REMARK    3  A    between atoms: _3  and  _6
REMARK    4  A    between atoms: _6  and  _7
REMARK    5  A    between atoms: _7  and  _8
REMARK    6  A    between atoms: _8  and  _9
REMARK    7  A    between atoms: _18  and  _20
REMARK    8  A    between atoms: _20  and  _21
REMARK    9  A    between atoms: _20  and  _23
REMARK   10  A    between atoms: _23  and  _24
REMARK   11  A    between atoms: _27  and  _29
REMARK   12  A    between atoms: _29  and  _30
REMARK   13  A    between atoms: _29  and  _32
REMARK   14  A    between atoms: _32  and  _33
REMARK   15  A    between atoms: _36  and  _38
REMARK   16  A    between atoms: _38  and  _39
REMARK   17  A    between atoms: _38  and  _41
REMARK   18  A    between atoms: _41  and  _42
REMARK   19  A    between atoms: _45  and  _47
REMARK   20  A    between atoms: _47  and  _48
REMARK   21  A    between atoms: _47  and  _50
REMARK   22  A    between atoms: _50  and  _51
REMARK   23  A    between atoms: _54  and  _56
REMARK   24  A    between atoms: _56  and  _57
REMARK   25  A    between atoms: _59  and  _61
REMARK   26  A    between atoms: _61  and  _62
REMARK   27  A    between atoms: _65  and  _67
REMARK   28  A    between atoms: _67  and  _68
REMARK   29  A    between atoms: _67  and  _70
REMARK   30  A    between atoms: _70  and  _71
REMARK   31  A    between atoms: _74  and  _76
REMARK   32  A    between atoms: _76  and  _77
REMARK   33  A    between atoms: _76  and  _79
REMARK   34  A    between atoms: _79  and  _80
REMARK   35  A    between atoms: _83  and  _85
REMARK   36  A    between atoms: _85  and  _86
REMARK   37  A    between atoms: _85  and  _88
REMARK   38  A    between atoms: _88  and  _89
REMARK   39  A    between atoms: _92  and  _94
REMARK   40  A    between atoms: _94  and  _95
REMARK   41  A    between atoms: _94  and  _97
REMARK   42  A    between atoms: _100  and  _102
REMARK   43  A    between atoms: _102  and  _103
REMARK   44  A    between atoms: _102  and  _105
REMARK   45  A    between atoms: _105  and  _106
REMARK   46  A    between atoms: _106  and  _107
REMARK   47  A    between atoms: _107  and  _108
REMARK   48  A    between atoms: _108  and  _109
REMARK   49  A    between atoms: _113  and  _115
REMARK   50  A    between atoms: _115  and  _116
REMARK   51  A    between atoms: _115  and  _118
REMARK   52  A    between atoms: _118  and  _119
REMARK   53  A    between atoms: _119  and  _120
REMARK   54  A    between atoms: _122  and  _124
REMARK   55  A    between atoms: _124  and  _125
REMARK   56  A    between atoms: _124  and  _127
REMARK   57  A    between atoms: _127  and  _128
REMARK   58  A    between atoms: _131  and  _133
REMARK   59  A    between atoms: _133  and  _134
REMARK   60  A    between atoms: _136  and  _138
REMARK   61  A    between atoms: _138  and  _139
REMARK   62  A    between atoms: _141  and  _143
REMARK   63  A    between atoms: _143  and  _144
REMARK   64  A    between atoms: _143  and  _146
REMARK   65  A    between atoms: _146  and  _147
REMARK   66  A    between atoms: _150  and  _152
REMARK   67  A    between atoms: _152  and  _153
REMARK   68  A    between atoms: _155  and  _157
REMARK   69  A    between atoms: _157  and  _158
REMARK   70  A    between atoms: _160  and  _162
REMARK   71  A    between atoms: _162  and  _163
REMARK   72  A    between atoms: _162  and  _165
REMARK   73  A    between atoms: _165  and  _166
REMARK   74  A    between atoms: _172  and  _174
REMARK   75  A    between atoms: _174  and  _175
REMARK   76  A    between atoms: _174  and  _177
REMARK   77  A    between atoms: _177  and  _178
REMARK   78  A    between atoms: _181  and  _183
REMARK   79  A    between atoms: _183  and  _184
REMARK   80  A    between atoms: _183  and  _186
REMARK   81  A    between atoms: _186  and  _187
REMARK   82  A    between atoms: _191  and  _192
REMARK   83  A    between atoms: _197  and  _199
REMARK   84  A    between atoms: _199  and  _200
REMARK   85  A    between atoms: _199  and  _202
REMARK   86  A    between atoms: _202  and  _203
REMARK   87  A    between atoms: _207  and  _208
REMARK   88  A    between atoms: _213  and  _215
REMARK   89  A    between atoms: _215  and  _216
REMARK   90  A    between atoms: _215  and  _218
REMARK   91  A    between atoms: _221  and  _223
REMARK   92  A    between atoms: _223  and  _224
REMARK   93  A    between atoms: _223  and  _226
REMARK   94  A    between atoms: _226  and  _227
REMARK   95  A    between atoms: _232  and  _234
REMARK   96  A    between atoms: _234  and  _235
REMARK   97  A    between atoms: _234  and  _237
REMARK   98  A    between atoms: _237  and  _238
REMARK   99  A    between atoms: _241  and  _243
REMARK  100  A    between atoms: _243  and  _244
REMARK  101  A    between atoms: _243  and  _246
REMARK  102  A    between atoms: _246  and  _247
REMARK  103  A    between atoms: _250  and  _252
REMARK  104  A    between atoms: _252  and  _253
REMARK  105  A    between atoms: _255  and  _257
REMARK  106  A    between atoms: _257  and  _258
REMARK  107  A    between atoms: _257  and  _260
REMARK  108  A    between atoms: _260  and  _261
REMARK  109  A    between atoms: _261  and  _262
REMARK  110  A    between atoms: _262  and  _263
REMARK  111  A    between atoms: _272  and  _274
REMARK  112  A    between atoms: _274  and  _275
REMARK  113  A    between atoms: _274  and  _277
REMARK  114  A    between atoms: _277  and  _278
REMARK  115  A    between atoms: _278  and  _279
REMARK  116  A    between atoms: _279  and  _280
REMARK  117  A    between atoms: _289  and  _291
REMARK  118  A    between atoms: _291  and  _292
REMARK  119  A    between atoms: _291  and  _294
REMARK  120  A    between atoms: _294  and  _295
REMARK  121  A    between atoms: _298  and  _300
REMARK  122  A    between atoms: _300  and  _301
REMARK  123  A    between atoms: _300  and  _303
REMARK  124  A    between atoms: _303  and  _304
REMARK  125  A    between atoms: _307  and  _309
REMARK  126  A    between atoms: _309  and  _310
REMARK  127  A    between atoms: _309  and  _312
REMARK  128  A    between atoms: _312  and  _313
REMARK  129  A    between atoms: _316  and  _318
REMARK  130  A    between atoms: _318  and  _319
REMARK  131  A    between atoms: _318  and  _321
REMARK  132  A    between atoms: _321  and  _322
REMARK  133  A    between atoms: _325  and  _327
REMARK  134  A    between atoms: _327  and  _328
REMARK  135  A    between atoms: _330  and  _332
REMARK  136  A    between atoms: _332  and  _333
REMARK  137  A    between atoms: _336  and  _338
REMARK  138  A    between atoms: _338  and  _339
REMARK  139  A    between atoms: _338  and  _341
REMARK  140  A    between atoms: _341  and  _342
REMARK  141  A    between atoms: _345  and  _347
REMARK  142  A    between atoms: _347  and  _348
REMARK  143  A    between atoms: _347  and  _350
REMARK  144  A    between atoms: _350  and  _351
REMARK  145  A    between atoms: _354  and  _356
REMARK  146  A    between atoms: _356  and  _357
REMARK  147  A    between atoms: _356  and  _359
REMARK  148  A    between atoms: _359  and  _360
REMARK  149  A    between atoms: _363  and  _365
REMARK  150  A    between atoms: _365  and  _366
REMARK  151  A    between atoms: _365  and  _368
REMARK  152  A    between atoms: _371  and  _373
REMARK  153  A    between atoms: _373  and  _374
REMARK  154  A    between atoms: _373  and  _376
REMARK  155  A    between atoms: _376  and  _377
REMARK  156  A    between atoms: _380  and  _382
REMARK  157  A    between atoms: _382  and  _383
REMARK  158  A    between atoms: _382  and  _385
REMARK  159  A    between atoms: _385  and  _386
REMARK  160  A    between atoms: _386  and  _387
REMARK  161  A    between atoms: _387  and  _388
REMARK  162  A    between atoms: _388  and  _389
REMARK  163  A    between atoms: _393  and  _395
REMARK  164  A    between atoms: _395  and  _396
REMARK  165  A    between atoms: _395  and  _398
REMARK  166  A    between atoms: _398  and  _399
REMARK  167  A    between atoms: _399  and  _400
REMARK  168  A    between atoms: _402  and  _404
REMARK  169  A    between atoms: _404  and  _405
REMARK  170  A    between atoms: _404  and  _407
REMARK  171  A    between atoms: _407  and  _408
REMARK  172  A    between atoms: _411  and  _413
REMARK  173  A    between atoms: _413  and  _414
REMARK  174  A    between atoms: _416  and  _418
REMARK  175  A    between atoms: _418  and  _419
REMARK  176  A    between atoms: _421  and  _423
REMARK  177  A    between atoms: _423  and  _424
REMARK  178  A    between atoms: _423  and  _426
REMARK  179  A    between atoms: _426  and  _427
REMARK  180  A    between atoms: _430  and  _432
REMARK  181  A    between atoms: _432  and  _433
REMARK  182  A    between atoms: _435  and  _437
REMARK  183  A    between atoms: _437  and  _438
REMARK  184  A    between atoms: _440  and  _442
REMARK  185  A    between atoms: _442  and  _443
REMARK  186  A    between atoms: _442  and  _445
REMARK  187  A    between atoms: _445  and  _446
REMARK  188  A    between atoms: _452  and  _454
REMARK  189  A    between atoms: _454  and  _455
REMARK  190  A    between atoms: _454  and  _457
REMARK  191  A    between atoms: _457  and  _458
REMARK  192  A    between atoms: _461  and  _463
REMARK  193  A    between atoms: _463  and  _464
REMARK  194  A    between atoms: _463  and  _466
REMARK  195  A    between atoms: _469  and  _471
REMARK  196  A    between atoms: _471  and  _472
REMARK  197  A    between atoms: _471  and  _474
REMARK  198  A    between atoms: _474  and  _475
REMARK  199  A    between atoms: _479  and  _480
REMARK  200  A    between atoms: _485  and  _487
REMARK  201  A    between atoms: _487  and  _488
REMARK  202  A    between atoms: _487  and  _490
REMARK  203  A    between atoms: _490  and  _491
REMARK  204  A    between atoms: _495  and  _496
REMARK  205  A    between atoms: _501  and  _503
REMARK  206  A    between atoms: _503  and  _504
REMARK  207  A    between atoms: _503  and  _506
REMARK  208  A    between atoms: _509  and  _511
REMARK  209  A    between atoms: _511  and  _512
REMARK  210  A    between atoms: _511  and  _514
REMARK  211  A    between atoms: _514  and  _515
REMARK  212  A    between atoms: _520  and  _522
REMARK  213  A    between atoms: _522  and  _523
REMARK  214  A    between atoms: _522  and  _525
REMARK  215  A    between atoms: _525  and  _526
REMARK  216  A    between atoms: _529  and  _531
REMARK  217  A    between atoms: _531  and  _532
REMARK  218  A    between atoms: _531  and  _534
REMARK  219  A    between atoms: _534  and  _535
REMARK  220  A    between atoms: _538  and  _540
REMARK  221  A    between atoms: _540  and  _541
REMARK  222  A    between atoms: _543  and  _545
REMARK  223  A    between atoms: _545  and  _546
REMARK  224  A    between atoms: _545  and  _548
REMARK  225  A    between atoms: _548  and  _549
REMARK  226  A    between atoms: _549  and  _550
REMARK  227  A    between atoms: _550  and  _551
REMARK  228  A    between atoms: _560  and  _562
REMARK  229  A    between atoms: _562  and  _563
REMARK  230  A    between atoms: _562  and  _565
REMARK  231  A    between atoms: _565  and  _566
REMARK                            x       y       z     vdW  Elec       q    Type
REMARK                         _______ _______ _______ _____ _____    ______ ____
ROOT
ATOM      1  O   HOH     1      21.706  38.308  12.219  0.00  0.00    +0.000 OA
ENDROOT
TORSDOF 0
