REMARK  Name = ../refined-set-2016/3vfb/3vfb_pocket.pdb
REMARK  234 active torsions:
REMARK  status: ('A' for Active; 'I' for Inactive)
REMARK    1  A    between atoms: _1  and  _3
REMARK    2  A    between atoms: _3  and  _4
REMARK    3  A    between atoms: _3  and  _6
REMARK    4  A    between atoms: _6  and  _7
REMARK    5  A    between atoms: _7  and  _8
REMARK    6  A    between atoms: _8  and  _9
REMARK    7  A    between atoms: _18  and  _20
REMARK    8  A    between atoms: _20  and  _21
REMARK    9  A    between atoms: _20  and  _23
REMARK   10  A    between atoms: _23  and  _24
REMARK   11  A    between atoms: _27  and  _29
REMARK   12  A    between atoms: _29  and  _30
REMARK   13  A    between atoms: _29  and  _32
REMARK   14  A    between atoms: _32  and  _33
REMARK   15  A    between atoms: _36  and  _38
REMARK   16  A    between atoms: _38  and  _39
REMARK   17  A    between atoms: _38  and  _41
REMARK   18  A    between atoms: _41  and  _42
REMARK   19  A    between atoms: _45  and  _47
REMARK   20  A    between atoms: _47  and  _48
REMARK   21  A    between atoms: _47  and  _50
REMARK   22  A    between atoms: _50  and  _51
REMARK   23  A    between atoms: _54  and  _56
REMARK   24  A    between atoms: _56  and  _57
REMARK   25  A    between atoms: _56  and  _59
REMARK   26  A    between atoms: _59  and  _60
REMARK   27  A    between atoms: _63  and  _65
REMARK   28  A    between atoms: _65  and  _66
REMARK   29  A    between atoms: _68  and  _70
REMARK   30  A    between atoms: _70  and  _71
REMARK   31  A    between atoms: _74  and  _76
REMARK   32  A    between atoms: _76  and  _77
REMARK   33  A    between atoms: _76  and  _79
REMARK   34  A    between atoms: _79  and  _80
REMARK   35  A    between atoms: _83  and  _85
REMARK   36  A    between atoms: _85  and  _86
REMARK   37  A    between atoms: _85  and  _88
REMARK   38  A    between atoms: _88  and  _89
REMARK   39  A    between atoms: _92  and  _94
REMARK   40  A    between atoms: _94  and  _95
REMARK   41  A    between atoms: _94  and  _97
REMARK   42  A    between atoms: _97  and  _98
REMARK   43  A    between atoms: _101  and  _103
REMARK   44  A    between atoms: _103  and  _104
REMARK   45  A    between atoms: _103  and  _106
REMARK   46  A    between atoms: _109  and  _111
REMARK   47  A    between atoms: _111  and  _112
REMARK   48  A    between atoms: _111  and  _114
REMARK   49  A    between atoms: _114  and  _115
REMARK   50  A    between atoms: _115  and  _116
REMARK   51  A    between atoms: _116  and  _117
REMARK   52  A    between atoms: _117  and  _118
REMARK   53  A    between atoms: _122  and  _124
REMARK   54  A    between atoms: _124  and  _125
REMARK   55  A    between atoms: _124  and  _127
REMARK   56  A    between atoms: _127  and  _128
REMARK   57  A    between atoms: _128  and  _129
REMARK   58  A    between atoms: _131  and  _133
REMARK   59  A    between atoms: _133  and  _134
REMARK   60  A    between atoms: _133  and  _136
REMARK   61  A    between atoms: _136  and  _137
REMARK   62  A    between atoms: _140  and  _142
REMARK   63  A    between atoms: _142  and  _143
REMARK   64  A    between atoms: _145  and  _147
REMARK   65  A    between atoms: _147  and  _148
REMARK   66  A    between atoms: _150  and  _152
REMARK   67  A    between atoms: _152  and  _153
REMARK   68  A    between atoms: _152  and  _155
REMARK   69  A    between atoms: _155  and  _156
REMARK   70  A    between atoms: _159  and  _161
REMARK   71  A    between atoms: _161  and  _162
REMARK   72  A    between atoms: _164  and  _166
REMARK   73  A    between atoms: _166  and  _167
REMARK   74  A    between atoms: _169  and  _171
REMARK   75  A    between atoms: _171  and  _172
REMARK   76  A    between atoms: _171  and  _174
REMARK   77  A    between atoms: _174  and  _175
REMARK   78  A    between atoms: _181  and  _183
REMARK   79  A    between atoms: _183  and  _184
REMARK   80  A    between atoms: _183  and  _186
REMARK   81  A    between atoms: _186  and  _187
REMARK   82  A    between atoms: _190  and  _192
REMARK   83  A    between atoms: _192  and  _193
REMARK   84  A    between atoms: _192  and  _195
REMARK   85  A    between atoms: _195  and  _196
REMARK   86  A    between atoms: _199  and  _201
REMARK   87  A    between atoms: _201  and  _202
REMARK   88  A    between atoms: _201  and  _204
REMARK   89  A    between atoms: _204  and  _205
REMARK   90  A    between atoms: _209  and  _210
REMARK   91  A    between atoms: _215  and  _217
REMARK   92  A    between atoms: _217  and  _218
REMARK   93  A    between atoms: _217  and  _220
REMARK   94  A    between atoms: _223  and  _225
REMARK   95  A    between atoms: _225  and  _226
REMARK   96  A    between atoms: _225  and  _228
REMARK   97  A    between atoms: _228  and  _229
REMARK   98  A    between atoms: _234  and  _236
REMARK   99  A    between atoms: _236  and  _237
REMARK  100  A    between atoms: _236  and  _239
REMARK  101  A    between atoms: _239  and  _240
REMARK  102  A    between atoms: _243  and  _245
REMARK  103  A    between atoms: _245  and  _246
REMARK  104  A    between atoms: _245  and  _248
REMARK  105  A    between atoms: _248  and  _249
REMARK  106  A    between atoms: _252  and  _254
REMARK  107  A    between atoms: _254  and  _255
REMARK  108  A    between atoms: _257  and  _259
REMARK  109  A    between atoms: _259  and  _260
REMARK  110  A    between atoms: _259  and  _262
REMARK  111  A    between atoms: _262  and  _263
REMARK  112  A    between atoms: _263  and  _264
REMARK  113  A    between atoms: _264  and  _265
REMARK  114  A    between atoms: _274  and  _276
REMARK  115  A    between atoms: _276  and  _277
REMARK  116  A    between atoms: _276  and  _279
REMARK  117  A    between atoms: _279  and  _280
REMARK  118  A    between atoms: _283  and  _285
REMARK  119  A    between atoms: _285  and  _286
REMARK  120  A    between atoms: _285  and  _288
REMARK  121  A    between atoms: _288  and  _289
REMARK  122  A    between atoms: _289  and  _290
REMARK  123  A    between atoms: _290  and  _291
REMARK  124  A    between atoms: _300  and  _302
REMARK  125  A    between atoms: _302  and  _303
REMARK  126  A    between atoms: _302  and  _305
REMARK  127  A    between atoms: _305  and  _306
REMARK  128  A    between atoms: _309  and  _311
REMARK  129  A    between atoms: _311  and  _312
REMARK  130  A    between atoms: _311  and  _314
REMARK  131  A    between atoms: _314  and  _315
REMARK  132  A    between atoms: _318  and  _320
REMARK  133  A    between atoms: _320  and  _321
REMARK  134  A    between atoms: _320  and  _323
REMARK  135  A    between atoms: _323  and  _324
REMARK  136  A    between atoms: _327  and  _329
REMARK  137  A    between atoms: _329  and  _330
REMARK  138  A    between atoms: _329  and  _332
REMARK  139  A    between atoms: _332  and  _333
REMARK  140  A    between atoms: _336  and  _338
REMARK  141  A    between atoms: _338  and  _339
REMARK  142  A    between atoms: _341  and  _343
REMARK  143  A    between atoms: _343  and  _344
REMARK  144  A    between atoms: _347  and  _349
REMARK  145  A    between atoms: _349  and  _350
REMARK  146  A    between atoms: _349  and  _352
REMARK  147  A    between atoms: _352  and  _353
REMARK  148  A    between atoms: _356  and  _358
REMARK  149  A    between atoms: _358  and  _359
REMARK  150  A    between atoms: _358  and  _361
REMARK  151  A    between atoms: _361  and  _362
REMARK  152  A    between atoms: _365  and  _367
REMARK  153  A    between atoms: _367  and  _368
REMARK  154  A    between atoms: _367  and  _370
REMARK  155  A    between atoms: _370  and  _371
REMARK  156  A    between atoms: _374  and  _376
REMARK  157  A    between atoms: _376  and  _377
REMARK  158  A    between atoms: _376  and  _379
REMARK  159  A    between atoms: _382  and  _384
REMARK  160  A    between atoms: _384  and  _385
REMARK  161  A    between atoms: _384  and  _387
REMARK  162  A    between atoms: _387  and  _388
REMARK  163  A    between atoms: _388  and  _389
REMARK  164  A    between atoms: _389  and  _390
REMARK  165  A    between atoms: _390  and  _391
REMARK  166  A    between atoms: _395  and  _397
REMARK  167  A    between atoms: _397  and  _398
REMARK  168  A    between atoms: _397  and  _400
REMARK  169  A    between atoms: _400  and  _401
REMARK  170  A    between atoms: _401  and  _402
REMARK  171  A    between atoms: _404  and  _406
REMARK  172  A    between atoms: _406  and  _407
REMARK  173  A    between atoms: _406  and  _409
REMARK  174  A    between atoms: _409  and  _410
REMARK  175  A    between atoms: _413  and  _415
REMARK  176  A    between atoms: _415  and  _416
REMARK  177  A    between atoms: _418  and  _420
REMARK  178  A    between atoms: _420  and  _421
REMARK  179  A    between atoms: _423  and  _425
REMARK  180  A    between atoms: _425  and  _426
REMARK  181  A    between atoms: _425  and  _428
REMARK  182  A    between atoms: _428  and  _429
REMARK  183  A    between atoms: _432  and  _434
REMARK  184  A    between atoms: _434  and  _435
REMARK  185  A    between atoms: _437  and  _439
REMARK  186  A    between atoms: _439  and  _440
REMARK  187  A    between atoms: _442  and  _444
REMARK  188  A    between atoms: _444  and  _445
REMARK  189  A    between atoms: _444  and  _447
REMARK  190  A    between atoms: _447  and  _448
REMARK  191  A    between atoms: _454  and  _456
REMARK  192  A    between atoms: _456  and  _457
REMARK  193  A    between atoms: _456  and  _459
REMARK  194  A    between atoms: _459  and  _460
REMARK  195  A    between atoms: _463  and  _465
REMARK  196  A    between atoms: _465  and  _466
REMARK  197  A    between atoms: _465  and  _468
REMARK  198  A    between atoms: _471  and  _473
REMARK  199  A    between atoms: _473  and  _474
REMARK  200  A    between atoms: _473  and  _476
REMARK  201  A    between atoms: _476  and  _477
REMARK  202  A    between atoms: _481  and  _482
REMARK  203  A    between atoms: _487  and  _489
REMARK  204  A    between atoms: _489  and  _490
REMARK  205  A    between atoms: _489  and  _492
REMARK  206  A    between atoms: _492  and  _493
REMARK  207  A    between atoms: _497  and  _498
REMARK  208  A    between atoms: _503  and  _505
REMARK  209  A    between atoms: _505  and  _506
REMARK  210  A    between atoms: _505  and  _508
REMARK  211  A    between atoms: _511  and  _513
REMARK  212  A    between atoms: _513  and  _514
REMARK  213  A    between atoms: _513  and  _516
REMARK  214  A    between atoms: _516  and  _517
REMARK  215  A    between atoms: _522  and  _524
REMARK  216  A    between atoms: _524  and  _525
REMARK  217  A    between atoms: _524  and  _527
REMARK  218  A    between atoms: _527  and  _528
REMARK  219  A    between atoms: _531  and  _533
REMARK  220  A    between atoms: _533  and  _534
REMARK  221  A    between atoms: _533  and  _536
REMARK  222  A    between atoms: _536  and  _537
REMARK  223  A    between atoms: _540  and  _542
REMARK  224  A    between atoms: _542  and  _543
REMARK  225  A    between atoms: _545  and  _547
REMARK  226  A    between atoms: _547  and  _548
REMARK  227  A    between atoms: _547  and  _550
REMARK  228  A    between atoms: _550  and  _551
REMARK  229  A    between atoms: _551  and  _552
REMARK  230  A    between atoms: _552  and  _553
REMARK  231  A    between atoms: _562  and  _564
REMARK  232  A    between atoms: _564  and  _565
REMARK  233  A    between atoms: _564  and  _567
REMARK  234  A    between atoms: _567  and  _568
REMARK                            x       y       z     vdW  Elec       q    Type
REMARK                         _______ _______ _______ _____ _____    ______ ____
ROOT
ATOM      1  NE  ARG A   1       6.315  12.701  22.290  0.00  0.00    -0.265 N 
ATOM      2  CZ  ARG A   1       5.100  13.218  22.149  0.00  0.00    +0.342 C 
ATOM      3  NH2 ARG A   1       4.430  13.784  23.159  0.00  0.00    -0.292 N 
ATOM      4 HH21 ARG A   1       4.859  13.833  24.105  0.00  0.00    +0.255 HD
ATOM      5 HH22 ARG A   1       3.480  14.175  22.998  0.00  0.00    +0.255 HD
ATOM      6  NH1 ARG A   1       4.565  13.148  20.930  0.00  0.00    -0.292 N 
ATOM      7 HH11 ARG A   1       3.616  13.535  20.756  0.00  0.00    +0.255 HD
ATOM      8 HH12 ARG A   1       5.097  12.706  20.153  0.00  0.00    +0.255 HD
ATOM      9  HE  ARG A   1       6.749  12.287  21.440  0.00  0.00    +0.259 HD
ENDROOT
BRANCH   1  10
ATOM     10  CD  ARG A   1       7.102  12.656  23.517  0.00  0.00    +0.174 C 
BRANCH  10  11
ATOM     11  CG  ARG A   1       8.005  11.431  23.370  0.00  0.00    +0.045 C 
BRANCH  11  12
ATOM     12  CB  ARG A   1       8.654  11.037  24.671  0.00  0.00    +0.029 C 
BRANCH  12  13
ATOM     13  CA  ARG A   1       9.632   9.856  24.555  0.00  0.00    +0.133 C 
BRANCH  13  14
ATOM     14  N   ARG A   1       8.894   8.589  24.431  0.00  0.00    -0.239 NA
ATOM     15  H   ARG A   1       7.855   8.570  24.481  0.00  0.00    +0.142 HD
ENDBRANCH  13  14
BRANCH  13  16
ATOM     16  C   ARG A   1      10.581   9.863  25.747  0.00  0.00    +0.224 C 
ATOM     17  O   ARG A   1      10.128   9.399  26.807  0.00  0.00    -0.287 OA
ENDBRANCH  13  16
ENDBRANCH  12  13
ENDBRANCH  11  12
ENDBRANCH  10  11
ENDBRANCH   1  10
TORSDOF 6
REMARK  Name = ../refined-set-2016/3vfb/3vfb_pocket.pdb
REMARK  234 active torsions:
REMARK  status: ('A' for Active; 'I' for Inactive)
REMARK    1  A    between atoms: _1  and  _3
REMARK    2  A    between atoms: _3  and  _4
REMARK    3  A    between atoms: _3  and  _6
REMARK    4  A    between atoms: _6  and  _7
REMARK    5  A    between atoms: _7  and  _8
REMARK    6  A    between atoms: _8  and  _9
REMARK    7  A    between atoms: _18  and  _20
REMARK    8  A    between atoms: _20  and  _21
REMARK    9  A    between atoms: _20  and  _23
REMARK   10  A    between atoms: _23  and  _24
REMARK   11  A    between atoms: _27  and  _29
REMARK   12  A    between atoms: _29  and  _30
REMARK   13  A    between atoms: _29  and  _32
REMARK   14  A    between atoms: _32  and  _33
REMARK   15  A    between atoms: _36  and  _38
REMARK   16  A    between atoms: _38  and  _39
REMARK   17  A    between atoms: _38  and  _41
REMARK   18  A    between atoms: _41  and  _42
REMARK   19  A    between atoms: _45  and  _47
REMARK   20  A    between atoms: _47  and  _48
REMARK   21  A    between atoms: _47  and  _50
REMARK   22  A    between atoms: _50  and  _51
REMARK   23  A    between atoms: _54  and  _56
REMARK   24  A    between atoms: _56  and  _57
REMARK   25  A    between atoms: _56  and  _59
REMARK   26  A    between atoms: _59  and  _60
REMARK   27  A    between atoms: _63  and  _65
REMARK   28  A    between atoms: _65  and  _66
REMARK   29  A    between atoms: _68  and  _70
REMARK   30  A    between atoms: _70  and  _71
REMARK   31  A    between atoms: _74  and  _76
REMARK   32  A    between atoms: _76  and  _77
REMARK   33  A    between atoms: _76  and  _79
REMARK   34  A    between atoms: _79  and  _80
REMARK   35  A    between atoms: _83  and  _85
REMARK   36  A    between atoms: _85  and  _86
REMARK   37  A    between atoms: _85  and  _88
REMARK   38  A    between atoms: _88  and  _89
REMARK   39  A    between atoms: _92  and  _94
REMARK   40  A    between atoms: _94  and  _95
REMARK   41  A    between atoms: _94  and  _97
REMARK   42  A    between atoms: _97  and  _98
REMARK   43  A    between atoms: _101  and  _103
REMARK   44  A    between atoms: _103  and  _104
REMARK   45  A    between atoms: _103  and  _106
REMARK   46  A    between atoms: _109  and  _111
REMARK   47  A    between atoms: _111  and  _112
REMARK   48  A    between atoms: _111  and  _114
REMARK   49  A    between atoms: _114  and  _115
REMARK   50  A    between atoms: _115  and  _116
REMARK   51  A    between atoms: _116  and  _117
REMARK   52  A    between atoms: _117  and  _118
REMARK   53  A    between atoms: _122  and  _124
REMARK   54  A    between atoms: _124  and  _125
REMARK   55  A    between atoms: _124  and  _127
REMARK   56  A    between atoms: _127  and  _128
REMARK   57  A    between atoms: _128  and  _129
REMARK   58  A    between atoms: _131  and  _133
REMARK   59  A    between atoms: _133  and  _134
REMARK   60  A    between atoms: _133  and  _136
REMARK   61  A    between atoms: _136  and  _137
REMARK   62  A    between atoms: _140  and  _142
REMARK   63  A    between atoms: _142  and  _143
REMARK   64  A    between atoms: _145  and  _147
REMARK   65  A    between atoms: _147  and  _148
REMARK   66  A    between atoms: _150  and  _152
REMARK   67  A    between atoms: _152  and  _153
REMARK   68  A    between atoms: _152  and  _155
REMARK   69  A    between atoms: _155  and  _156
REMARK   70  A    between atoms: _159  and  _161
REMARK   71  A    between atoms: _161  and  _162
REMARK   72  A    between atoms: _164  and  _166
REMARK   73  A    between atoms: _166  and  _167
REMARK   74  A    between atoms: _169  and  _171
REMARK   75  A    between atoms: _171  and  _172
REMARK   76  A    between atoms: _171  and  _174
REMARK   77  A    between atoms: _174  and  _175
REMARK   78  A    between atoms: _181  and  _183
REMARK   79  A    between atoms: _183  and  _184
REMARK   80  A    between atoms: _183  and  _186
REMARK   81  A    between atoms: _186  and  _187
REMARK   82  A    between atoms: _190  and  _192
REMARK   83  A    between atoms: _192  and  _193
REMARK   84  A    between atoms: _192  and  _195
REMARK   85  A    between atoms: _195  and  _196
REMARK   86  A    between atoms: _199  and  _201
REMARK   87  A    between atoms: _201  and  _202
REMARK   88  A    between atoms: _201  and  _204
REMARK   89  A    between atoms: _204  and  _205
REMARK   90  A    between atoms: _209  and  _210
REMARK   91  A    between atoms: _215  and  _217
REMARK   92  A    between atoms: _217  and  _218
REMARK   93  A    between atoms: _217  and  _220
REMARK   94  A    between atoms: _223  and  _225
REMARK   95  A    between atoms: _225  and  _226
REMARK   96  A    between atoms: _225  and  _228
REMARK   97  A    between atoms: _228  and  _229
REMARK   98  A    between atoms: _234  and  _236
REMARK   99  A    between atoms: _236  and  _237
REMARK  100  A    between atoms: _236  and  _239
REMARK  101  A    between atoms: _239  and  _240
REMARK  102  A    between atoms: _243  and  _245
REMARK  103  A    between atoms: _245  and  _246
REMARK  104  A    between atoms: _245  and  _248
REMARK  105  A    between atoms: _248  and  _249
REMARK  106  A    between atoms: _252  and  _254
REMARK  107  A    between atoms: _254  and  _255
REMARK  108  A    between atoms: _257  and  _259
REMARK  109  A    between atoms: _259  and  _260
REMARK  110  A    between atoms: _259  and  _262
REMARK  111  A    between atoms: _262  and  _263
REMARK  112  A    between atoms: _263  and  _264
REMARK  113  A    between atoms: _264  and  _265
REMARK  114  A    between atoms: _274  and  _276
REMARK  115  A    between atoms: _276  and  _277
REMARK  116  A    between atoms: _276  and  _279
REMARK  117  A    between atoms: _279  and  _280
REMARK  118  A    between atoms: _283  and  _285
REMARK  119  A    between atoms: _285  and  _286
REMARK  120  A    between atoms: _285  and  _288
REMARK  121  A    between atoms: _288  and  _289
REMARK  122  A    between atoms: _289  and  _290
REMARK  123  A    between atoms: _290  and  _291
REMARK  124  A    between atoms: _300  and  _302
REMARK  125  A    between atoms: _302  and  _303
REMARK  126  A    between atoms: _302  and  _305
REMARK  127  A    between atoms: _305  and  _306
REMARK  128  A    between atoms: _309  and  _311
REMARK  129  A    between atoms: _311  and  _312
REMARK  130  A    between atoms: _311  and  _314
REMARK  131  A    between atoms: _314  and  _315
REMARK  132  A    between atoms: _318  and  _320
REMARK  133  A    between atoms: _320  and  _321
REMARK  134  A    between atoms: _320  and  _323
REMARK  135  A    between atoms: _323  and  _324
REMARK  136  A    between atoms: _327  and  _329
REMARK  137  A    between atoms: _329  and  _330
REMARK  138  A    between atoms: _329  and  _332
REMARK  139  A    between atoms: _332  and  _333
REMARK  140  A    between atoms: _336  and  _338
REMARK  141  A    between atoms: _338  and  _339
REMARK  142  A    between atoms: _341  and  _343
REMARK  143  A    between atoms: _343  and  _344
REMARK  144  A    between atoms: _347  and  _349
REMARK  145  A    between atoms: _349  and  _350
REMARK  146  A    between atoms: _349  and  _352
REMARK  147  A    between atoms: _352  and  _353
REMARK  148  A    between atoms: _356  and  _358
REMARK  149  A    between atoms: _358  and  _359
REMARK  150  A    between atoms: _358  and  _361
REMARK  151  A    between atoms: _361  and  _362
REMARK  152  A    between atoms: _365  and  _367
REMARK  153  A    between atoms: _367  and  _368
REMARK  154  A    between atoms: _367  and  _370
REMARK  155  A    between atoms: _370  and  _371
REMARK  156  A    between atoms: _374  and  _376
REMARK  157  A    between atoms: _376  and  _377
REMARK  158  A    between atoms: _376  and  _379
REMARK  159  A    between atoms: _382  and  _384
REMARK  160  A    between atoms: _384  and  _385
REMARK  161  A    between atoms: _384  and  _387
REMARK  162  A    between atoms: _387  and  _388
REMARK  163  A    between atoms: _388  and  _389
REMARK  164  A    between atoms: _389  and  _390
REMARK  165  A    between atoms: _390  and  _391
REMARK  166  A    between atoms: _395  and  _397
REMARK  167  A    between atoms: _397  and  _398
REMARK  168  A    between atoms: _397  and  _400
REMARK  169  A    between atoms: _400  and  _401
REMARK  170  A    between atoms: _401  and  _402
REMARK  171  A    between atoms: _404  and  _406
REMARK  172  A    between atoms: _406  and  _407
REMARK  173  A    between atoms: _406  and  _409
REMARK  174  A    between atoms: _409  and  _410
REMARK  175  A    between atoms: _413  and  _415
REMARK  176  A    between atoms: _415  and  _416
REMARK  177  A    between atoms: _418  and  _420
REMARK  178  A    between atoms: _420  and  _421
REMARK  179  A    between atoms: _423  and  _425
REMARK  180  A    between atoms: _425  and  _426
REMARK  181  A    between atoms: _425  and  _428
REMARK  182  A    between atoms: _428  and  _429
REMARK  183  A    between atoms: _432  and  _434
REMARK  184  A    between atoms: _434  and  _435
REMARK  185  A    between atoms: _437  and  _439
REMARK  186  A    between atoms: _439  and  _440
REMARK  187  A    between atoms: _442  and  _444
REMARK  188  A    between atoms: _444  and  _445
REMARK  189  A    between atoms: _444  and  _447
REMARK  190  A    between atoms: _447  and  _448
REMARK  191  A    between atoms: _454  and  _456
REMARK  192  A    between atoms: _456  and  _457
REMARK  193  A    between atoms: _456  and  _459
REMARK  194  A    between atoms: _459  and  _460
REMARK  195  A    between atoms: _463  and  _465
REMARK  196  A    between atoms: _465  and  _466
REMARK  197  A    between atoms: _465  and  _468
REMARK  198  A    between atoms: _471  and  _473
REMARK  199  A    between atoms: _473  and  _474
REMARK  200  A    between atoms: _473  and  _476
REMARK  201  A    between atoms: _476  and  _477
REMARK  202  A    between atoms: _481  and  _482
REMARK  203  A    between atoms: _487  and  _489
REMARK  204  A    between atoms: _489  and  _490
REMARK  205  A    between atoms: _489  and  _492
REMARK  206  A    between atoms: _492  and  _493
REMARK  207  A    between atoms: _497  and  _498
REMARK  208  A    between atoms: _503  and  _505
REMARK  209  A    between atoms: _505  and  _506
REMARK  210  A    between atoms: _505  and  _508
REMARK  211  A    between atoms: _511  and  _513
REMARK  212  A    between atoms: _513  and  _514
REMARK  213  A    between atoms: _513  and  _516
REMARK  214  A    between atoms: _516  and  _517
REMARK  215  A    between atoms: _522  and  _524
REMARK  216  A    between atoms: _524  and  _525
REMARK  217  A    between atoms: _524  and  _527
REMARK  218  A    between atoms: _527  and  _528
REMARK  219  A    between atoms: _531  and  _533
REMARK  220  A    between atoms: _533  and  _534
REMARK  221  A    between atoms: _533  and  _536
REMARK  222  A    between atoms: _536  and  _537
REMARK  223  A    between atoms: _540  and  _542
REMARK  224  A    between atoms: _542  and  _543
REMARK  225  A    between atoms: _545  and  _547
REMARK  226  A    between atoms: _547  and  _548
REMARK  227  A    between atoms: _547  and  _550
REMARK  228  A    between atoms: _550  and  _551
REMARK  229  A    between atoms: _551  and  _552
REMARK  230  A    between atoms: _552  and  _553
REMARK  231  A    between atoms: _562  and  _564
REMARK  232  A    between atoms: _564  and  _565
REMARK  233  A    between atoms: _564  and  _567
REMARK  234  A    between atoms: _567  and  _568
REMARK                            x       y       z     vdW  Elec       q    Type
REMARK                         _______ _______ _______ _____ _____    ______ ____
ROOT
ATOM      1  CA  LEU A   1      11.018  12.360  29.408  0.00  0.00    +0.133 C 
ENDROOT
BRANCH   1   2
ATOM      2  N   LEU A   1      11.443  11.348  28.464  0.00  0.00    -0.239 NA
ATOM      3  H   LEU A   1      10.888  10.473  28.377  0.00  0.00    +0.142 HD
ENDBRANCH   1   2
BRANCH   1   4
ATOM      4  C   LEU A   1      11.624  12.042  30.772  0.00  0.00    +0.224 C 
ATOM      5  O   LEU A   1      11.631  10.893  31.201  0.00  0.00    -0.287 OA
ENDBRANCH   1   4
BRANCH   1   6
ATOM      6  CB  LEU A   1       9.499  12.434  29.547  0.00  0.00    +0.025 C 
BRANCH   6   7
ATOM      7  CG  LEU A   1       8.676  12.821  28.317  0.00  0.00    +0.002 C 
ATOM      8  CD2 LEU A   1       7.212  12.502  28.558  0.00  0.00    +0.000 C 
ATOM      9  CD1 LEU A   1       8.861  14.292  27.906  0.00  0.00    +0.000 C 
ENDBRANCH   6   7
ENDBRANCH   1   6
TORSDOF 4
REMARK  Name = ../refined-set-2016/3vfb/3vfb_pocket.pdb
REMARK  234 active torsions:
REMARK  status: ('A' for Active; 'I' for Inactive)
REMARK    1  A    between atoms: _1  and  _3
REMARK    2  A    between atoms: _3  and  _4
REMARK    3  A    between atoms: _3  and  _6
REMARK    4  A    between atoms: _6  and  _7
REMARK    5  A    between atoms: _7  and  _8
REMARK    6  A    between atoms: _8  and  _9
REMARK    7  A    between atoms: _18  and  _20
REMARK    8  A    between atoms: _20  and  _21
REMARK    9  A    between atoms: _20  and  _23
REMARK   10  A    between atoms: _23  and  _24
REMARK   11  A    between atoms: _27  and  _29
REMARK   12  A    between atoms: _29  and  _30
REMARK   13  A    between atoms: _29  and  _32
REMARK   14  A    between atoms: _32  and  _33
REMARK   15  A    between atoms: _36  and  _38
REMARK   16  A    between atoms: _38  and  _39
REMARK   17  A    between atoms: _38  and  _41
REMARK   18  A    between atoms: _41  and  _42
REMARK   19  A    between atoms: _45  and  _47
REMARK   20  A    between atoms: _47  and  _48
REMARK   21  A    between atoms: _47  and  _50
REMARK   22  A    between atoms: _50  and  _51
REMARK   23  A    between atoms: _54  and  _56
REMARK   24  A    between atoms: _56  and  _57
REMARK   25  A    between atoms: _56  and  _59
REMARK   26  A    between atoms: _59  and  _60
REMARK   27  A    between atoms: _63  and  _65
REMARK   28  A    between atoms: _65  and  _66
REMARK   29  A    between atoms: _68  and  _70
REMARK   30  A    between atoms: _70  and  _71
REMARK   31  A    between atoms: _74  and  _76
REMARK   32  A    between atoms: _76  and  _77
REMARK   33  A    between atoms: _76  and  _79
REMARK   34  A    between atoms: _79  and  _80
REMARK   35  A    between atoms: _83  and  _85
REMARK   36  A    between atoms: _85  and  _86
REMARK   37  A    between atoms: _85  and  _88
REMARK   38  A    between atoms: _88  and  _89
REMARK   39  A    between atoms: _92  and  _94
REMARK   40  A    between atoms: _94  and  _95
REMARK   41  A    between atoms: _94  and  _97
REMARK   42  A    between atoms: _97  and  _98
REMARK   43  A    between atoms: _101  and  _103
REMARK   44  A    between atoms: _103  and  _104
REMARK   45  A    between atoms: _103  and  _106
REMARK   46  A    between atoms: _109  and  _111
REMARK   47  A    between atoms: _111  and  _112
REMARK   48  A    between atoms: _111  and  _114
REMARK   49  A    between atoms: _114  and  _115
REMARK   50  A    between atoms: _115  and  _116
REMARK   51  A    between atoms: _116  and  _117
REMARK   52  A    between atoms: _117  and  _118
REMARK   53  A    between atoms: _122  and  _124
REMARK   54  A    between atoms: _124  and  _125
REMARK   55  A    between atoms: _124  and  _127
REMARK   56  A    between atoms: _127  and  _128
REMARK   57  A    between atoms: _128  and  _129
REMARK   58  A    between atoms: _131  and  _133
REMARK   59  A    between atoms: _133  and  _134
REMARK   60  A    between atoms: _133  and  _136
REMARK   61  A    between atoms: _136  and  _137
REMARK   62  A    between atoms: _140  and  _142
REMARK   63  A    between atoms: _142  and  _143
REMARK   64  A    between atoms: _145  and  _147
REMARK   65  A    between atoms: _147  and  _148
REMARK   66  A    between atoms: _150  and  _152
REMARK   67  A    between atoms: _152  and  _153
REMARK   68  A    between atoms: _152  and  _155
REMARK   69  A    between atoms: _155  and  _156
REMARK   70  A    between atoms: _159  and  _161
REMARK   71  A    between atoms: _161  and  _162
REMARK   72  A    between atoms: _164  and  _166
REMARK   73  A    between atoms: _166  and  _167
REMARK   74  A    between atoms: _169  and  _171
REMARK   75  A    between atoms: _171  and  _172
REMARK   76  A    between atoms: _171  and  _174
REMARK   77  A    between atoms: _174  and  _175
REMARK   78  A    between atoms: _181  and  _183
REMARK   79  A    between atoms: _183  and  _184
REMARK   80  A    between atoms: _183  and  _186
REMARK   81  A    between atoms: _186  and  _187
REMARK   82  A    between atoms: _190  and  _192
REMARK   83  A    between atoms: _192  and  _193
REMARK   84  A    between atoms: _192  and  _195
REMARK   85  A    between atoms: _195  and  _196
REMARK   86  A    between atoms: _199  and  _201
REMARK   87  A    between atoms: _201  and  _202
REMARK   88  A    between atoms: _201  and  _204
REMARK   89  A    between atoms: _204  and  _205
REMARK   90  A    between atoms: _209  and  _210
REMARK   91  A    between atoms: _215  and  _217
REMARK   92  A    between atoms: _217  and  _218
REMARK   93  A    between atoms: _217  and  _220
REMARK   94  A    between atoms: _223  and  _225
REMARK   95  A    between atoms: _225  and  _226
REMARK   96  A    between atoms: _225  and  _228
REMARK   97  A    between atoms: _228  and  _229
REMARK   98  A    between atoms: _234  and  _236
REMARK   99  A    between atoms: _236  and  _237
REMARK  100  A    between atoms: _236  and  _239
REMARK  101  A    between atoms: _239  and  _240
REMARK  102  A    between atoms: _243  and  _245
REMARK  103  A    between atoms: _245  and  _246
REMARK  104  A    between atoms: _245  and  _248
REMARK  105  A    between atoms: _248  and  _249
REMARK  106  A    between atoms: _252  and  _254
REMARK  107  A    between atoms: _254  and  _255
REMARK  108  A    between atoms: _257  and  _259
REMARK  109  A    between atoms: _259  and  _260
REMARK  110  A    between atoms: _259  and  _262
REMARK  111  A    between atoms: _262  and  _263
REMARK  112  A    between atoms: _263  and  _264
REMARK  113  A    between atoms: _264  and  _265
REMARK  114  A    between atoms: _274  and  _276
REMARK  115  A    between atoms: _276  and  _277
REMARK  116  A    between atoms: _276  and  _279
REMARK  117  A    between atoms: _279  and  _280
REMARK  118  A    between atoms: _283  and  _285
REMARK  119  A    between atoms: _285  and  _286
REMARK  120  A    between atoms: _285  and  _288
REMARK  121  A    between atoms: _288  and  _289
REMARK  122  A    between atoms: _289  and  _290
REMARK  123  A    between atoms: _290  and  _291
REMARK  124  A    between atoms: _300  and  _302
REMARK  125  A    between atoms: _302  and  _303
REMARK  126  A    between atoms: _302  and  _305
REMARK  127  A    between atoms: _305  and  _306
REMARK  128  A    between atoms: _309  and  _311
REMARK  129  A    between atoms: _311  and  _312
REMARK  130  A    between atoms: _311  and  _314
REMARK  131  A    between atoms: _314  and  _315
REMARK  132  A    between atoms: _318  and  _320
REMARK  133  A    between atoms: _320  and  _321
REMARK  134  A    between atoms: _320  and  _323
REMARK  135  A    between atoms: _323  and  _324
REMARK  136  A    between atoms: _327  and  _329
REMARK  137  A    between atoms: _329  and  _330
REMARK  138  A    between atoms: _329  and  _332
REMARK  139  A    between atoms: _332  and  _333
REMARK  140  A    between atoms: _336  and  _338
REMARK  141  A    between atoms: _338  and  _339
REMARK  142  A    between atoms: _341  and  _343
REMARK  143  A    between atoms: _343  and  _344
REMARK  144  A    between atoms: _347  and  _349
REMARK  145  A    between atoms: _349  and  _350
REMARK  146  A    between atoms: _349  and  _352
REMARK  147  A    between atoms: _352  and  _353
REMARK  148  A    between atoms: _356  and  _358
REMARK  149  A    between atoms: _358  and  _359
REMARK  150  A    between atoms: _358  and  _361
REMARK  151  A    between atoms: _361  and  _362
REMARK  152  A    between atoms: _365  and  _367
REMARK  153  A    between atoms: _367  and  _368
REMARK  154  A    between atoms: _367  and  _370
REMARK  155  A    between atoms: _370  and  _371
REMARK  156  A    between atoms: _374  and  _376
REMARK  157  A    between atoms: _376  and  _377
REMARK  158  A    between atoms: _376  and  _379
REMARK  159  A    between atoms: _382  and  _384
REMARK  160  A    between atoms: _384  and  _385
REMARK  161  A    between atoms: _384  and  _387
REMARK  162  A    between atoms: _387  and  _388
REMARK  163  A    between atoms: _388  and  _389
REMARK  164  A    between atoms: _389  and  _390
REMARK  165  A    between atoms: _390  and  _391
REMARK  166  A    between atoms: _395  and  _397
REMARK  167  A    between atoms: _397  and  _398
REMARK  168  A    between atoms: _397  and  _400
REMARK  169  A    between atoms: _400  and  _401
REMARK  170  A    between atoms: _401  and  _402
REMARK  171  A    between atoms: _404  and  _406
REMARK  172  A    between atoms: _406  and  _407
REMARK  173  A    between atoms: _406  and  _409
REMARK  174  A    between atoms: _409  and  _410
REMARK  175  A    between atoms: _413  and  _415
REMARK  176  A    between atoms: _415  and  _416
REMARK  177  A    between atoms: _418  and  _420
REMARK  178  A    between atoms: _420  and  _421
REMARK  179  A    between atoms: _423  and  _425
REMARK  180  A    between atoms: _425  and  _426
REMARK  181  A    between atoms: _425  and  _428
REMARK  182  A    between atoms: _428  and  _429
REMARK  183  A    between atoms: _432  and  _434
REMARK  184  A    between atoms: _434  and  _435
REMARK  185  A    between atoms: _437  and  _439
REMARK  186  A    between atoms: _439  and  _440
REMARK  187  A    between atoms: _442  and  _444
REMARK  188  A    between atoms: _444  and  _445
REMARK  189  A    between atoms: _444  and  _447
REMARK  190  A    between atoms: _447  and  _448
REMARK  191  A    between atoms: _454  and  _456
REMARK  192  A    between atoms: _456  and  _457
REMARK  193  A    between atoms: _456  and  _459
REMARK  194  A    between atoms: _459  and  _460
REMARK  195  A    between atoms: _463  and  _465
REMARK  196  A    between atoms: _465  and  _466
REMARK  197  A    between atoms: _465  and  _468
REMARK  198  A    between atoms: _471  and  _473
REMARK  199  A    between atoms: _473  and  _474
REMARK  200  A    between atoms: _473  and  _476
REMARK  201  A    between atoms: _476  and  _477
REMARK  202  A    between atoms: _481  and  _482
REMARK  203  A    between atoms: _487  and  _489
REMARK  204  A    between atoms: _489  and  _490
REMARK  205  A    between atoms: _489  and  _492
REMARK  206  A    between atoms: _492  and  _493
REMARK  207  A    between atoms: _497  and  _498
REMARK  208  A    between atoms: _503  and  _505
REMARK  209  A    between atoms: _505  and  _506
REMARK  210  A    between atoms: _505  and  _508
REMARK  211  A    between atoms: _511  and  _513
REMARK  212  A    between atoms: _513  and  _514
REMARK  213  A    between atoms: _513  and  _516
REMARK  214  A    between atoms: _516  and  _517
REMARK  215  A    between atoms: _522  and  _524
REMARK  216  A    between atoms: _524  and  _525
REMARK  217  A    between atoms: _524  and  _527
REMARK  218  A    between atoms: _527  and  _528
REMARK  219  A    between atoms: _531  and  _533
REMARK  220  A    between atoms: _533  and  _534
REMARK  221  A    between atoms: _533  and  _536
REMARK  222  A    between atoms: _536  and  _537
REMARK  223  A    between atoms: _540  and  _542
REMARK  224  A    between atoms: _542  and  _543
REMARK  225  A    between atoms: _545  and  _547
REMARK  226  A    between atoms: _547  and  _548
REMARK  227  A    between atoms: _547  and  _550
REMARK  228  A    between atoms: _550  and  _551
REMARK  229  A    between atoms: _551  and  _552
REMARK  230  A    between atoms: _552  and  _553
REMARK  231  A    between atoms: _562  and  _564
REMARK  232  A    between atoms: _564  and  _565
REMARK  233  A    between atoms: _564  and  _567
REMARK  234  A    between atoms: _567  and  _568
REMARK                            x       y       z     vdW  Elec       q    Type
REMARK                         _______ _______ _______ _____ _____    ______ ____
ROOT
ATOM      1  C   GLY A   5      18.336  19.125  18.638  0.00  0.00    +0.243 C 
ATOM      2  N   ALA A   6      18.376  19.481  19.901  0.00  0.00    -0.297 N 
ATOM      3  H   ALA A   6      18.442  18.715  20.601  0.00  0.00    +0.150 HD
ATOM      4  O   GLY A   5      18.174  19.983  17.766  0.00  0.00    -0.273 OA
ENDROOT
BRANCH   2   5
ATOM      5  CA  ALA A   6      18.338  20.825  20.415  0.00  0.00    +0.149 C 
ATOM      6  CB  ALA A   6      17.348  20.897  21.581  0.00  0.00    +0.031 C 
BRANCH   5   7
ATOM      7  C   ALA A   6      19.724  21.272  20.870  0.00  0.00    +0.241 C 
ATOM      8  O   ALA A   6      20.400  20.622  21.659  0.00  0.00    -0.273 OA
ATOM      9  N   ASP A   7      20.127  22.424  20.366  0.00  0.00    -0.297 N 
ATOM     10  H   ASP A   7      19.524  22.938  19.692  0.00  0.00    +0.150 HD
BRANCH   9  11
ATOM     11  CA  ASP A   7      21.408  22.969  20.754  0.00  0.00    +0.160 C 
BRANCH  11  12
ATOM     12  C   ASP A   7      21.382  23.531  22.174  0.00  0.00    +0.241 C 
ATOM     13  O   ASP A   7      22.387  23.484  22.877  0.00  0.00    -0.273 OA
ATOM     14  N   ASP A   8      20.241  24.085  22.528  0.00  0.00    -0.297 N 
ATOM     15  H   ASP A   8      19.440  23.973  21.874  0.00  0.00    +0.150 HD
BRANCH  14  16
ATOM     16  CA  ASP A   8      19.997  24.833  23.738  0.00  0.00    +0.160 C 
BRANCH  16  17
ATOM     17  C   ASP A   8      18.824  24.238  24.526  0.00  0.00    +0.241 C 
ATOM     18  N   THR A   9      18.786  24.547  25.791  0.00  0.00    -0.295 N 
ATOM     19  H   THR A   9      19.584  25.077  26.195  0.00  0.00    +0.150 HD
ATOM     20  O   ASP A   8      17.974  23.546  23.975  0.00  0.00    -0.273 OA
BRANCH  18  21
ATOM     21  CA  THR A   9      17.666  24.181  26.677  0.00  0.00    +0.176 C 
BRANCH  21  22
ATOM     22  C   THR A   9      16.600  25.268  26.731  0.00  0.00    +0.243 C 
ATOM     23  O   THR A   9      16.916  26.447  26.935  0.00  0.00    -0.273 OA
ATOM     24  N   VAL A  10      15.357  24.842  26.491  0.00  0.00    -0.298 N 
ATOM     25  H   VAL A  10      15.179  23.823  26.388  0.00  0.00    +0.150 HD
BRANCH  24  26
ATOM     26  CA  VAL A  10      14.250  25.772  26.371  0.00  0.00    +0.137 C 
BRANCH  26  27
ATOM     27  CB  VAL A  10      13.693  25.879  24.950  0.00  0.00    +0.026 C 
ATOM     28  CG2 VAL A  10      12.769  27.097  24.874  0.00  0.00    +0.002 C 
ATOM     29  CG1 VAL A  10      14.784  25.978  23.902  0.00  0.00    +0.002 C 
ENDBRANCH  26  27
BRANCH  26  30
ATOM     30  C   VAL A  10      13.128  25.290  27.294  0.00  0.00    +0.227 C 
ATOM     31  O   VAL A  10      12.725  24.139  27.186  0.00  0.00    -0.286 OA
ENDBRANCH  26  30
ENDBRANCH  24  26
ENDBRANCH  21  22
BRANCH  21  32
ATOM     32  CB  THR A   9      18.233  23.876  28.069  0.00  0.00    +0.137 C 
ATOM     33  CG2 THR A   9      17.184  23.601  29.122  0.00  0.00    +0.034 C 
BRANCH  32  34
ATOM     34  OG1 THR A   9      19.056  22.686  27.948  0.00  0.00    -0.382 OA
ATOM     35  HG1 THR A   9      19.788  22.857  27.304  0.00  0.00    +0.210 HD
ENDBRANCH  32  34
ENDBRANCH  21  32
ENDBRANCH  18  21
ENDBRANCH  16  17
BRANCH  16  36
ATOM     36  CB  ASP A   8      19.600  26.285  23.472  0.00  0.00    +0.143 C 
BRANCH  36  37
ATOM     37  CG  ASP A   8      20.464  26.969  22.444  0.00  0.00    +0.367 C 
ATOM     38  OD2 ASP A   8      21.674  27.102  22.722  0.00  0.00    -0.246 OA
ATOM     39  OD1 ASP A   8      19.908  27.362  21.385  0.00  0.00    -0.246 OA
ENDBRANCH  36  37
ENDBRANCH  16  36
ENDBRANCH  14  16
ENDBRANCH  11  12
BRANCH  11  40
ATOM     40  CB  ASP A   7      21.850  24.099  19.819  0.00  0.00    +0.143 C 
BRANCH  40  41
ATOM     41  CG  ASP A   7      22.035  23.743  18.355  0.00  0.00    +0.367 C 
ATOM     42  OD2 ASP A   7      22.299  22.573  17.995  0.00  0.00    -0.246 OA
ATOM     43  OD1 ASP A   7      21.915  24.704  17.553  0.00  0.00    -0.246 OA
ENDBRANCH  40  41
ENDBRANCH  11  40
ENDBRANCH   9  11
ENDBRANCH   5   7
ENDBRANCH   2   5
BRANCH   1  44
ATOM     44  CA  GLY A   5      18.487  17.672  18.267  0.00  0.00    +0.176 C 
BRANCH  44  47
ATOM     45  C   THR A   4      19.836  16.550  19.943  0.00  0.00    +0.243 C 
ATOM     46  O   THR A   4      20.901  17.020  19.486  0.00  0.00    -0.273 OA
ATOM     47  N   GLY A   5      18.635  16.773  19.415  0.00  0.00    -0.295 N 
ATOM     48  H   GLY A   5      17.797  16.307  19.819  0.00  0.00    +0.150 HD
BRANCH  45  49
ATOM     49  CA  THR A   4      19.851  15.654  21.177  0.00  0.00    +0.176 C 
BRANCH  49  52
ATOM     50  C   ASP A   3      17.990  16.594  22.412  0.00  0.00    +0.241 C 
ATOM     51  O   ASP A   3      18.536  17.703  22.444  0.00  0.00    -0.273 OA
ATOM     52  N   THR A   4      18.550  15.516  21.820  0.00  0.00    -0.295 N 
ATOM     53  H   THR A   4      18.059  14.599  21.823  0.00  0.00    +0.150 HD
BRANCH  50  54
ATOM     54  CA  ASP A   3      16.632  16.344  23.068  0.00  0.00    +0.160 C 
BRANCH  54  56
ATOM     55  C   LEU A   2      16.161  14.925  25.004  0.00  0.00    +0.241 C 
ATOM     56  N   ASP A   3      16.728  16.004  24.476  0.00  0.00    -0.297 N 
ATOM     57  H   ASP A   3      17.267  16.636  25.102  0.00  0.00    +0.150 HD
ATOM     58  O   LEU A   2      15.743  13.988  24.341  0.00  0.00    -0.273 OA
BRANCH  55  59
ATOM     59  CA  LEU A   2      16.024  14.907  26.520  0.00  0.00    +0.149 C 
BRANCH  59  61
ATOM     60  C   LEU A   1      13.884  16.013  26.827  0.00  0.00    +0.238 C 
ATOM     61  N   LEU A   2      14.606  14.896  26.897  0.00  0.00    -0.297 N 
ATOM     62  H   LEU A   2      14.163  14.012  27.220  0.00  0.00    +0.150 HD
ATOM     63  O   LEU A   1      14.381  17.136  26.562  0.00  0.00    -0.274 OA
BRANCH  60  64
ATOM     64  CA  LEU A   1      12.384  15.923  27.071  0.00  0.00    +0.145 C 
BRANCH  64  65
ATOM     65  N   LEU A   1      11.987  16.875  28.094  0.00  0.00    -0.238 NA
ATOM     66  H   LEU A   1      11.818  17.864  27.819  0.00  0.00    +0.142 HD
ENDBRANCH  64  65
BRANCH  64  67
ATOM     67  CB  LEU A   1      11.623  16.310  25.814  0.00  0.00    +0.026 C 
BRANCH  67  68
ATOM     68  CG  LEU A   1      11.759  15.483  24.566  0.00  0.00    +0.002 C 
ATOM     69  CD2 LEU A   1      11.152  14.109  24.780  0.00  0.00    +0.000 C 
ATOM     70  CD1 LEU A   1      11.069  16.159  23.383  0.00  0.00    +0.000 C 
ENDBRANCH  67  68
ENDBRANCH  64  67
ENDBRANCH  60  64
ENDBRANCH  59  61
BRANCH  59  71
ATOM     71  CB  LEU A   2      16.760  13.710  27.116  0.00  0.00    +0.029 C 
BRANCH  71  72
ATOM     72  CG  LEU A   2      16.618  13.534  28.630  0.00  0.00    +0.002 C 
ATOM     73  CD2 LEU A   2      17.121  14.731  29.411  0.00  0.00    +0.000 C 
ATOM     74  CD1 LEU A   2      17.380  12.288  29.118  0.00  0.00    +0.000 C 
ENDBRANCH  71  72
ENDBRANCH  59  71
ENDBRANCH  55  59
ENDBRANCH  54  56
BRANCH  54  75
ATOM     75  CB  ASP A   3      15.734  17.598  22.896  0.00  0.00    +0.143 C 
BRANCH  75  76
ATOM     76  CG  ASP A   3      15.294  17.872  21.483  0.00  0.00    +0.367 C 
ATOM     77  OD2 ASP A   3      14.344  18.682  21.307  0.00  0.00    -0.246 OA
ATOM     78  OD1 ASP A   3      15.868  17.284  20.527  0.00  0.00    -0.246 OA
ENDBRANCH  75  76
ENDBRANCH  54  75
ENDBRANCH  50  54
ENDBRANCH  49  52
BRANCH  49  79
ATOM     79  CB  THR A   4      20.439  14.272  20.794  0.00  0.00    +0.137 C 
ATOM     80  CG2 THR A   4      20.679  13.502  22.081  0.00  0.00    +0.034 C 
BRANCH  79  81
ATOM     81  OG1 THR A   4      19.516  13.569  19.955  0.00  0.00    -0.382 OA
ATOM     82  HG1 THR A   4      19.352  14.095  19.133  0.00  0.00    +0.210 HD
ENDBRANCH  79  81
ENDBRANCH  49  79
ENDBRANCH  45  49
ENDBRANCH  44  47
ENDBRANCH   1  44
TORSDOF 35
REMARK  Name = ../refined-set-2016/3vfb/3vfb_pocket.pdb
REMARK  234 active torsions:
REMARK  status: ('A' for Active; 'I' for Inactive)
REMARK    1  A    between atoms: _1  and  _3
REMARK    2  A    between atoms: _3  and  _4
REMARK    3  A    between atoms: _3  and  _6
REMARK    4  A    between atoms: _6  and  _7
REMARK    5  A    between atoms: _7  and  _8
REMARK    6  A    between atoms: _8  and  _9
REMARK    7  A    between atoms: _18  and  _20
REMARK    8  A    between atoms: _20  and  _21
REMARK    9  A    between atoms: _20  and  _23
REMARK   10  A    between atoms: _23  and  _24
REMARK   11  A    between atoms: _27  and  _29
REMARK   12  A    between atoms: _29  and  _30
REMARK   13  A    between atoms: _29  and  _32
REMARK   14  A    between atoms: _32  and  _33
REMARK   15  A    between atoms: _36  and  _38
REMARK   16  A    between atoms: _38  and  _39
REMARK   17  A    between atoms: _38  and  _41
REMARK   18  A    between atoms: _41  and  _42
REMARK   19  A    between atoms: _45  and  _47
REMARK   20  A    between atoms: _47  and  _48
REMARK   21  A    between atoms: _47  and  _50
REMARK   22  A    between atoms: _50  and  _51
REMARK   23  A    between atoms: _54  and  _56
REMARK   24  A    between atoms: _56  and  _57
REMARK   25  A    between atoms: _56  and  _59
REMARK   26  A    between atoms: _59  and  _60
REMARK   27  A    between atoms: _63  and  _65
REMARK   28  A    between atoms: _65  and  _66
REMARK   29  A    between atoms: _68  and  _70
REMARK   30  A    between atoms: _70  and  _71
REMARK   31  A    between atoms: _74  and  _76
REMARK   32  A    between atoms: _76  and  _77
REMARK   33  A    between atoms: _76  and  _79
REMARK   34  A    between atoms: _79  and  _80
REMARK   35  A    between atoms: _83  and  _85
REMARK   36  A    between atoms: _85  and  _86
REMARK   37  A    between atoms: _85  and  _88
REMARK   38  A    between atoms: _88  and  _89
REMARK   39  A    between atoms: _92  and  _94
REMARK   40  A    between atoms: _94  and  _95
REMARK   41  A    between atoms: _94  and  _97
REMARK   42  A    between atoms: _97  and  _98
REMARK   43  A    between atoms: _101  and  _103
REMARK   44  A    between atoms: _103  and  _104
REMARK   45  A    between atoms: _103  and  _106
REMARK   46  A    between atoms: _109  and  _111
REMARK   47  A    between atoms: _111  and  _112
REMARK   48  A    between atoms: _111  and  _114
REMARK   49  A    between atoms: _114  and  _115
REMARK   50  A    between atoms: _115  and  _116
REMARK   51  A    between atoms: _116  and  _117
REMARK   52  A    between atoms: _117  and  _118
REMARK   53  A    between atoms: _122  and  _124
REMARK   54  A    between atoms: _124  and  _125
REMARK   55  A    between atoms: _124  and  _127
REMARK   56  A    between atoms: _127  and  _128
REMARK   57  A    between atoms: _128  and  _129
REMARK   58  A    between atoms: _131  and  _133
REMARK   59  A    between atoms: _133  and  _134
REMARK   60  A    between atoms: _133  and  _136
REMARK   61  A    between atoms: _136  and  _137
REMARK   62  A    between atoms: _140  and  _142
REMARK   63  A    between atoms: _142  and  _143
REMARK   64  A    between atoms: _145  and  _147
REMARK   65  A    between atoms: _147  and  _148
REMARK   66  A    between atoms: _150  and  _152
REMARK   67  A    between atoms: _152  and  _153
REMARK   68  A    between atoms: _152  and  _155
REMARK   69  A    between atoms: _155  and  _156
REMARK   70  A    between atoms: _159  and  _161
REMARK   71  A    between atoms: _161  and  _162
REMARK   72  A    between atoms: _164  and  _166
REMARK   73  A    between atoms: _166  and  _167
REMARK   74  A    between atoms: _169  and  _171
REMARK   75  A    between atoms: _171  and  _172
REMARK   76  A    between atoms: _171  and  _174
REMARK   77  A    between atoms: _174  and  _175
REMARK   78  A    between atoms: _181  and  _183
REMARK   79  A    between atoms: _183  and  _184
REMARK   80  A    between atoms: _183  and  _186
REMARK   81  A    between atoms: _186  and  _187
REMARK   82  A    between atoms: _190  and  _192
REMARK   83  A    between atoms: _192  and  _193
REMARK   84  A    between atoms: _192  and  _195
REMARK   85  A    between atoms: _195  and  _196
REMARK   86  A    between atoms: _199  and  _201
REMARK   87  A    between atoms: _201  and  _202
REMARK   88  A    between atoms: _201  and  _204
REMARK   89  A    between atoms: _204  and  _205
REMARK   90  A    between atoms: _209  and  _210
REMARK   91  A    between atoms: _215  and  _217
REMARK   92  A    between atoms: _217  and  _218
REMARK   93  A    between atoms: _217  and  _220
REMARK   94  A    between atoms: _223  and  _225
REMARK   95  A    between atoms: _225  and  _226
REMARK   96  A    between atoms: _225  and  _228
REMARK   97  A    between atoms: _228  and  _229
REMARK   98  A    between atoms: _234  and  _236
REMARK   99  A    between atoms: _236  and  _237
REMARK  100  A    between atoms: _236  and  _239
REMARK  101  A    between atoms: _239  and  _240
REMARK  102  A    between atoms: _243  and  _245
REMARK  103  A    between atoms: _245  and  _246
REMARK  104  A    between atoms: _245  and  _248
REMARK  105  A    between atoms: _248  and  _249
REMARK  106  A    between atoms: _252  and  _254
REMARK  107  A    between atoms: _254  and  _255
REMARK  108  A    between atoms: _257  and  _259
REMARK  109  A    between atoms: _259  and  _260
REMARK  110  A    between atoms: _259  and  _262
REMARK  111  A    between atoms: _262  and  _263
REMARK  112  A    between atoms: _263  and  _264
REMARK  113  A    between atoms: _264  and  _265
REMARK  114  A    between atoms: _274  and  _276
REMARK  115  A    between atoms: _276  and  _277
REMARK  116  A    between atoms: _276  and  _279
REMARK  117  A    between atoms: _279  and  _280
REMARK  118  A    between atoms: _283  and  _285
REMARK  119  A    between atoms: _285  and  _286
REMARK  120  A    between atoms: _285  and  _288
REMARK  121  A    between atoms: _288  and  _289
REMARK  122  A    between atoms: _289  and  _290
REMARK  123  A    between atoms: _290  and  _291
REMARK  124  A    between atoms: _300  and  _302
REMARK  125  A    between atoms: _302  and  _303
REMARK  126  A    between atoms: _302  and  _305
REMARK  127  A    between atoms: _305  and  _306
REMARK  128  A    between atoms: _309  and  _311
REMARK  129  A    between atoms: _311  and  _312
REMARK  130  A    between atoms: _311  and  _314
REMARK  131  A    between atoms: _314  and  _315
REMARK  132  A    between atoms: _318  and  _320
REMARK  133  A    between atoms: _320  and  _321
REMARK  134  A    between atoms: _320  and  _323
REMARK  135  A    between atoms: _323  and  _324
REMARK  136  A    between atoms: _327  and  _329
REMARK  137  A    between atoms: _329  and  _330
REMARK  138  A    between atoms: _329  and  _332
REMARK  139  A    between atoms: _332  and  _333
REMARK  140  A    between atoms: _336  and  _338
REMARK  141  A    between atoms: _338  and  _339
REMARK  142  A    between atoms: _341  and  _343
REMARK  143  A    between atoms: _343  and  _344
REMARK  144  A    between atoms: _347  and  _349
REMARK  145  A    between atoms: _349  and  _350
REMARK  146  A    between atoms: _349  and  _352
REMARK  147  A    between atoms: _352  and  _353
REMARK  148  A    between atoms: _356  and  _358
REMARK  149  A    between atoms: _358  and  _359
REMARK  150  A    between atoms: _358  and  _361
REMARK  151  A    between atoms: _361  and  _362
REMARK  152  A    between atoms: _365  and  _367
REMARK  153  A    between atoms: _367  and  _368
REMARK  154  A    between atoms: _367  and  _370
REMARK  155  A    between atoms: _370  and  _371
REMARK  156  A    between atoms: _374  and  _376
REMARK  157  A    between atoms: _376  and  _377
REMARK  158  A    between atoms: _376  and  _379
REMARK  159  A    between atoms: _382  and  _384
REMARK  160  A    between atoms: _384  and  _385
REMARK  161  A    between atoms: _384  and  _387
REMARK  162  A    between atoms: _387  and  _388
REMARK  163  A    between atoms: _388  and  _389
REMARK  164  A    between atoms: _389  and  _390
REMARK  165  A    between atoms: _390  and  _391
REMARK  166  A    between atoms: _395  and  _397
REMARK  167  A    between atoms: _397  and  _398
REMARK  168  A    between atoms: _397  and  _400
REMARK  169  A    between atoms: _400  and  _401
REMARK  170  A    between atoms: _401  and  _402
REMARK  171  A    between atoms: _404  and  _406
REMARK  172  A    between atoms: _406  and  _407
REMARK  173  A    between atoms: _406  and  _409
REMARK  174  A    between atoms: _409  and  _410
REMARK  175  A    between atoms: _413  and  _415
REMARK  176  A    between atoms: _415  and  _416
REMARK  177  A    between atoms: _418  and  _420
REMARK  178  A    between atoms: _420  and  _421
REMARK  179  A    between atoms: _423  and  _425
REMARK  180  A    between atoms: _425  and  _426
REMARK  181  A    between atoms: _425  and  _428
REMARK  182  A    between atoms: _428  and  _429
REMARK  183  A    between atoms: _432  and  _434
REMARK  184  A    between atoms: _434  and  _435
REMARK  185  A    between atoms: _437  and  _439
REMARK  186  A    between atoms: _439  and  _440
REMARK  187  A    between atoms: _442  and  _444
REMARK  188  A    between atoms: _444  and  _445
REMARK  189  A    between atoms: _444  and  _447
REMARK  190  A    between atoms: _447  and  _448
REMARK  191  A    between atoms: _454  and  _456
REMARK  192  A    between atoms: _456  and  _457
REMARK  193  A    between atoms: _456  and  _459
REMARK  194  A    between atoms: _459  and  _460
REMARK  195  A    between atoms: _463  and  _465
REMARK  196  A    between atoms: _465  and  _466
REMARK  197  A    between atoms: _465  and  _468
REMARK  198  A    between atoms: _471  and  _473
REMARK  199  A    between atoms: _473  and  _474
REMARK  200  A    between atoms: _473  and  _476
REMARK  201  A    between atoms: _476  and  _477
REMARK  202  A    between atoms: _481  and  _482
REMARK  203  A    between atoms: _487  and  _489
REMARK  204  A    between atoms: _489  and  _490
REMARK  205  A    between atoms: _489  and  _492
REMARK  206  A    between atoms: _492  and  _493
REMARK  207  A    between atoms: _497  and  _498
REMARK  208  A    between atoms: _503  and  _505
REMARK  209  A    between atoms: _505  and  _506
REMARK  210  A    between atoms: _505  and  _508
REMARK  211  A    between atoms: _511  and  _513
REMARK  212  A    between atoms: _513  and  _514
REMARK  213  A    between atoms: _513  and  _516
REMARK  214  A    between atoms: _516  and  _517
REMARK  215  A    between atoms: _522  and  _524
REMARK  216  A    between atoms: _524  and  _525
REMARK  217  A    between atoms: _524  and  _527
REMARK  218  A    between atoms: _527  and  _528
REMARK  219  A    between atoms: _531  and  _533
REMARK  220  A    between atoms: _533  and  _534
REMARK  221  A    between atoms: _533  and  _536
REMARK  222  A    between atoms: _536  and  _537
REMARK  223  A    between atoms: _540  and  _542
REMARK  224  A    between atoms: _542  and  _543
REMARK  225  A    between atoms: _545  and  _547
REMARK  226  A    between atoms: _547  and  _548
REMARK  227  A    between atoms: _547  and  _550
REMARK  228  A    between atoms: _550  and  _551
REMARK  229  A    between atoms: _551  and  _552
REMARK  230  A    between atoms: _552  and  _553
REMARK  231  A    between atoms: _562  and  _564
REMARK  232  A    between atoms: _564  and  _565
REMARK  233  A    between atoms: _564  and  _567
REMARK  234  A    between atoms: _567  and  _568
REMARK                            x       y       z     vdW  Elec       q    Type
REMARK                         _______ _______ _______ _____ _____    ______ ____
ROOT
ATOM      1  C   GLY A   5      12.109  24.953  13.979  0.00  0.00    +0.243 C 
ATOM      2  N   ILE A   6      11.373  23.859  14.038  0.00  0.00    -0.297 N 
ATOM      3  H   ILE A   6      11.245  23.401  14.963  0.00  0.00    +0.150 HD
ATOM      4  O   GLY A   5      12.242  25.592  12.936  0.00  0.00    -0.273 OA
ENDROOT
BRANCH   2   5
ATOM      5  CA  ILE A   6      10.727  23.257  12.871  0.00  0.00    +0.149 C 
BRANCH   5   6
ATOM      6  C   ILE A   6       9.776  24.230  12.185  0.00  0.00    +0.241 C 
ATOM      7  N   GLY A   7       9.089  25.065  12.949  0.00  0.00    -0.295 N 
ATOM      8  H   GLY A   7       9.262  25.096  13.974  0.00  0.00    +0.150 HD
ATOM      9  O   ILE A   6       9.632  24.244  10.970  0.00  0.00    -0.273 OA
BRANCH   7  10
ATOM     10  CA  GLY A   7       8.093  25.938  12.352  0.00  0.00    +0.176 C 
BRANCH  10  11
ATOM     11  C   GLY A   7       8.493  27.367  12.084  0.00  0.00    +0.243 C 
ATOM     12  N   GLY A   8       9.712  27.754  12.458  0.00  0.00    -0.295 N 
ATOM     13  H   GLY A   8      10.345  27.044  12.879  0.00  0.00    +0.150 HD
ATOM     14  O   GLY A   7       7.673  28.105  11.533  0.00  0.00    -0.273 OA
BRANCH  12  15
ATOM     15  CA  GLY A   8      10.201  29.096  12.312  0.00  0.00    +0.176 C 
BRANCH  15  16
ATOM     16  C   GLY A   8      10.899  29.605  13.562  0.00  0.00    +0.243 C 
ATOM     17  O   GLY A   8      11.146  28.831  14.464  0.00  0.00    -0.273 OA
ATOM     18  N   PHE A   9      11.199  30.896  13.592  0.00  0.00    -0.297 N 
ATOM     19  H   PHE A   9      10.899  31.488  12.791  0.00  0.00    +0.150 HD
BRANCH  18  20
ATOM     20  CA  PHE A   9      11.925  31.532  14.682  0.00  0.00    +0.153 C 
BRANCH  20  21
ATOM     21  C   PHE A   9      10.991  32.180  15.691  0.00  0.00    +0.241 C 
ATOM     22  N   ILE A  10      11.439  32.118  16.935  0.00  0.00    -0.298 N 
ATOM     23  H   ILE A  10      12.330  31.613  17.115  0.00  0.00    +0.150 HD
ATOM     24  O   PHE A   9       9.930  32.703  15.364  0.00  0.00    -0.273 OA
BRANCH  22  25
ATOM     25  CA  ILE A  10      10.753  32.716  18.051  0.00  0.00    +0.137 C 
BRANCH  25  26
ATOM     26  C   ILE A  10      11.771  33.472  18.906  0.00  0.00    +0.227 C 
ATOM     27  O   ILE A  10      12.953  33.114  18.884  0.00  0.00    -0.286 OA
ENDBRANCH  25  26
BRANCH  25  28
ATOM     28  CB  ILE A  10      10.043  31.690  18.952  0.00  0.00    +0.026 C 
ATOM     29  CG2 ILE A  10       8.884  31.033  18.217  0.00  0.00    +0.002 C 
BRANCH  28  30
ATOM     30  CG1 ILE A  10      10.947  30.619  19.564  0.00  0.00    +0.002 C 
ATOM     31  CD1 ILE A  10      10.357  29.915  20.779  0.00  0.00    +0.000 C 
ENDBRANCH  28  30
ENDBRANCH  25  28
ENDBRANCH  22  25
ENDBRANCH  20  21
BRANCH  20  32
ATOM     32  CB  PHE A   9      12.874  32.603  14.125  0.00  0.00    +0.055 C 
BRANCH  32  33
ATOM     33  CG  PHE A   9      14.119  32.014  13.475  0.00  0.00    -0.020 A 
ATOM     34  CD2 PHE A   9      15.322  31.983  14.160  0.00  0.00    -0.004 A 
ATOM     35  CE2 PHE A   9      16.431  31.426  13.564  0.00  0.00    -0.000 A 
ATOM     36  CZ  PHE A   9      16.391  30.911  12.285  0.00  0.00    -0.000 A 
ATOM     37  CE1 PHE A   9      15.195  30.950  11.586  0.00  0.00    -0.000 A 
ATOM     38  CD1 PHE A   9      14.071  31.499  12.183  0.00  0.00    -0.004 A 
ENDBRANCH  32  33
ENDBRANCH  20  32
ENDBRANCH  18  20
ENDBRANCH  15  16
ENDBRANCH  12  15
ENDBRANCH  10  11
ENDBRANCH   7  10
ENDBRANCH   5   6
BRANCH   5  39
ATOM     39  CB  ILE A   6       9.960  21.969  13.221  0.00  0.00    +0.027 C 
ATOM     40  CG2 ILE A   6       8.623  22.257  13.886  0.00  0.00    +0.002 C 
BRANCH  39  41
ATOM     41  CG1 ILE A   6       9.747  21.016  12.036  0.00  0.00    +0.002 C 
ATOM     42  CD1 ILE A   6      11.006  20.495  11.407  0.00  0.00    +0.000 C 
ENDBRANCH  39  41
ENDBRANCH   5  39
ENDBRANCH   2   5
BRANCH   1  43
ATOM     43  CA  GLY A   5      12.799  25.427  15.246  0.00  0.00    +0.176 C 
BRANCH  43  45
ATOM     44  C   GLY A   4      14.380  27.191  15.056  0.00  0.00    +0.243 C 
ATOM     45  N   GLY A   5      13.105  26.849  15.181  0.00  0.00    -0.295 N 
ATOM     46  H   GLY A   5      12.354  27.567  15.231  0.00  0.00    +0.150 HD
ATOM     47  O   GLY A   4      15.296  26.353  15.069  0.00  0.00    -0.273 OA
BRANCH  44  48
ATOM     48  CA  GLY A   4      14.703  28.661  14.924  0.00  0.00    +0.176 C 
BRANCH  48  51
ATOM     49  C   ILE A   3      14.964  29.966  16.973  0.00  0.00    +0.241 C 
ATOM     50  O   ILE A   3      13.804  30.362  16.947  0.00  0.00    -0.273 OA
ATOM     51  N   GLY A   4      15.443  29.128  16.076  0.00  0.00    -0.295 N 
ATOM     52  H   GLY A   4      16.415  28.780  16.204  0.00  0.00    +0.150 HD
BRANCH  49  53
ATOM     53  CA  ILE A   3      15.958  30.410  18.047  0.00  0.00    +0.149 C 
BRANCH  53  55
ATOM     54  C   MET A   2      16.540  32.716  18.392  0.00  0.00    +0.241 C 
ATOM     55  N   ILE A   3      15.616  31.770  18.403  0.00  0.00    -0.297 N 
ATOM     56  H   ILE A   3      14.638  32.005  18.669  0.00  0.00    +0.150 HD
ATOM     57  O   MET A   2      17.725  32.517  18.166  0.00  0.00    -0.273 OA
BRANCH  54  58
ATOM     58  CA  MET A   2      16.125  34.153  18.657  0.00  0.00    +0.149 C 
BRANCH  58  61
ATOM     59  C   LYS A   1      16.610  35.001  20.892  0.00  0.00    +0.238 C 
ATOM     60  O   LYS A   1      15.450  34.943  21.278  0.00  0.00    -0.274 OA
ATOM     61  N   MET A   2      16.992  34.709  19.663  0.00  0.00    -0.297 N 
ATOM     62  H   MET A   2      17.983  34.892  19.405  0.00  0.00    +0.150 HD
BRANCH  59  63
ATOM     63  CA  LYS A   1      17.743  35.424  21.809  0.00  0.00    +0.145 C 
BRANCH  63  64
ATOM     64  N   LYS A   1      17.265  36.412  22.768  0.00  0.00    -0.238 NA
ATOM     65  H   LYS A   1      16.277  36.376  23.090  0.00  0.00    +0.142 HD
ENDBRANCH  63  64
BRANCH  63  66
ATOM     66  CB  LYS A   1      18.314  34.244  22.600  0.00  0.00    +0.026 C 
BRANCH  66  67
ATOM     67  CG  LYS A   1      18.987  33.200  21.748  0.00  0.00    -0.000 C 
BRANCH  67  68
ATOM     68  CD  LYS A   1      19.855  32.251  22.544  0.00  0.00    -0.024 C 
BRANCH  68  69
ATOM     69  CE  LYS A   1      20.360  31.093  21.694  0.00  0.00    -0.086 C 
BRANCH  69  70
ATOM     70  NZ  LYS A   1      21.535  31.423  20.857  0.00  0.00    +0.380 N 
ATOM     71  HZ1 LYS A   1      22.322  31.720  21.468  0.00  0.00    -0.089 HD
ATOM     72  HZ2 LYS A   1      21.816  30.584  20.310  0.00  0.00    -0.089 HD
ATOM     73  HZ3 LYS A   1      21.289  32.196  20.206  0.00  0.00    -0.089 HD
ENDBRANCH  69  70
ENDBRANCH  68  69
ENDBRANCH  67  68
ENDBRANCH  66  67
ENDBRANCH  63  66
ENDBRANCH  59  63
ENDBRANCH  58  61
BRANCH  58  74
ATOM     74  CB  MET A   2      16.270  34.893  17.321  0.00  0.00    +0.041 C 
BRANCH  74  75
ATOM     75  CG  MET A   2      15.698  36.295  17.340  0.00  0.00    +0.060 C 
BRANCH  75  76
ATOM     76  SD  MET A   2      13.908  36.333  17.480  0.00  0.00    -0.139 S 
ATOM     77  CE  MET A   2      13.367  34.982  16.446  0.00  0.00    +0.069 C 
ENDBRANCH  75  76
ENDBRANCH  74  75
ENDBRANCH  58  74
ENDBRANCH  54  58
ENDBRANCH  53  55
BRANCH  53  78
ATOM     78  CB  ILE A   3      15.943  29.433  19.245  0.00  0.00    +0.027 C 
ATOM     79  CG2 ILE A   3      17.033  29.750  20.226  0.00  0.00    +0.002 C 
BRANCH  78  80
ATOM     80  CG1 ILE A   3      14.571  29.369  19.917  0.00  0.00    +0.002 C 
ATOM     81  CD1 ILE A   3      14.464  28.391  21.066  0.00  0.00    +0.000 C 
ENDBRANCH  78  80
ENDBRANCH  53  78
ENDBRANCH  49  53
ENDBRANCH  48  51
ENDBRANCH  44  48
ENDBRANCH  43  45
ENDBRANCH   1  43
TORSDOF 36
REMARK  Name = ../refined-set-2016/3vfb/3vfb_pocket.pdb
REMARK  234 active torsions:
REMARK  status: ('A' for Active; 'I' for Inactive)
REMARK    1  A    between atoms: _1  and  _3
REMARK    2  A    between atoms: _3  and  _4
REMARK    3  A    between atoms: _3  and  _6
REMARK    4  A    between atoms: _6  and  _7
REMARK    5  A    between atoms: _7  and  _8
REMARK    6  A    between atoms: _8  and  _9
REMARK    7  A    between atoms: _18  and  _20
REMARK    8  A    between atoms: _20  and  _21
REMARK    9  A    between atoms: _20  and  _23
REMARK   10  A    between atoms: _23  and  _24
REMARK   11  A    between atoms: _27  and  _29
REMARK   12  A    between atoms: _29  and  _30
REMARK   13  A    between atoms: _29  and  _32
REMARK   14  A    between atoms: _32  and  _33
REMARK   15  A    between atoms: _36  and  _38
REMARK   16  A    between atoms: _38  and  _39
REMARK   17  A    between atoms: _38  and  _41
REMARK   18  A    between atoms: _41  and  _42
REMARK   19  A    between atoms: _45  and  _47
REMARK   20  A    between atoms: _47  and  _48
REMARK   21  A    between atoms: _47  and  _50
REMARK   22  A    between atoms: _50  and  _51
REMARK   23  A    between atoms: _54  and  _56
REMARK   24  A    between atoms: _56  and  _57
REMARK   25  A    between atoms: _56  and  _59
REMARK   26  A    between atoms: _59  and  _60
REMARK   27  A    between atoms: _63  and  _65
REMARK   28  A    between atoms: _65  and  _66
REMARK   29  A    between atoms: _68  and  _70
REMARK   30  A    between atoms: _70  and  _71
REMARK   31  A    between atoms: _74  and  _76
REMARK   32  A    between atoms: _76  and  _77
REMARK   33  A    between atoms: _76  and  _79
REMARK   34  A    between atoms: _79  and  _80
REMARK   35  A    between atoms: _83  and  _85
REMARK   36  A    between atoms: _85  and  _86
REMARK   37  A    between atoms: _85  and  _88
REMARK   38  A    between atoms: _88  and  _89
REMARK   39  A    between atoms: _92  and  _94
REMARK   40  A    between atoms: _94  and  _95
REMARK   41  A    between atoms: _94  and  _97
REMARK   42  A    between atoms: _97  and  _98
REMARK   43  A    between atoms: _101  and  _103
REMARK   44  A    between atoms: _103  and  _104
REMARK   45  A    between atoms: _103  and  _106
REMARK   46  A    between atoms: _109  and  _111
REMARK   47  A    between atoms: _111  and  _112
REMARK   48  A    between atoms: _111  and  _114
REMARK   49  A    between atoms: _114  and  _115
REMARK   50  A    between atoms: _115  and  _116
REMARK   51  A    between atoms: _116  and  _117
REMARK   52  A    between atoms: _117  and  _118
REMARK   53  A    between atoms: _122  and  _124
REMARK   54  A    between atoms: _124  and  _125
REMARK   55  A    between atoms: _124  and  _127
REMARK   56  A    between atoms: _127  and  _128
REMARK   57  A    between atoms: _128  and  _129
REMARK   58  A    between atoms: _131  and  _133
REMARK   59  A    between atoms: _133  and  _134
REMARK   60  A    between atoms: _133  and  _136
REMARK   61  A    between atoms: _136  and  _137
REMARK   62  A    between atoms: _140  and  _142
REMARK   63  A    between atoms: _142  and  _143
REMARK   64  A    between atoms: _145  and  _147
REMARK   65  A    between atoms: _147  and  _148
REMARK   66  A    between atoms: _150  and  _152
REMARK   67  A    between atoms: _152  and  _153
REMARK   68  A    between atoms: _152  and  _155
REMARK   69  A    between atoms: _155  and  _156
REMARK   70  A    between atoms: _159  and  _161
REMARK   71  A    between atoms: _161  and  _162
REMARK   72  A    between atoms: _164  and  _166
REMARK   73  A    between atoms: _166  and  _167
REMARK   74  A    between atoms: _169  and  _171
REMARK   75  A    between atoms: _171  and  _172
REMARK   76  A    between atoms: _171  and  _174
REMARK   77  A    between atoms: _174  and  _175
REMARK   78  A    between atoms: _181  and  _183
REMARK   79  A    between atoms: _183  and  _184
REMARK   80  A    between atoms: _183  and  _186
REMARK   81  A    between atoms: _186  and  _187
REMARK   82  A    between atoms: _190  and  _192
REMARK   83  A    between atoms: _192  and  _193
REMARK   84  A    between atoms: _192  and  _195
REMARK   85  A    between atoms: _195  and  _196
REMARK   86  A    between atoms: _199  and  _201
REMARK   87  A    between atoms: _201  and  _202
REMARK   88  A    between atoms: _201  and  _204
REMARK   89  A    between atoms: _204  and  _205
REMARK   90  A    between atoms: _209  and  _210
REMARK   91  A    between atoms: _215  and  _217
REMARK   92  A    between atoms: _217  and  _218
REMARK   93  A    between atoms: _217  and  _220
REMARK   94  A    between atoms: _223  and  _225
REMARK   95  A    between atoms: _225  and  _226
REMARK   96  A    between atoms: _225  and  _228
REMARK   97  A    between atoms: _228  and  _229
REMARK   98  A    between atoms: _234  and  _236
REMARK   99  A    between atoms: _236  and  _237
REMARK  100  A    between atoms: _236  and  _239
REMARK  101  A    between atoms: _239  and  _240
REMARK  102  A    between atoms: _243  and  _245
REMARK  103  A    between atoms: _245  and  _246
REMARK  104  A    between atoms: _245  and  _248
REMARK  105  A    between atoms: _248  and  _249
REMARK  106  A    between atoms: _252  and  _254
REMARK  107  A    between atoms: _254  and  _255
REMARK  108  A    between atoms: _257  and  _259
REMARK  109  A    between atoms: _259  and  _260
REMARK  110  A    between atoms: _259  and  _262
REMARK  111  A    between atoms: _262  and  _263
REMARK  112  A    between atoms: _263  and  _264
REMARK  113  A    between atoms: _264  and  _265
REMARK  114  A    between atoms: _274  and  _276
REMARK  115  A    between atoms: _276  and  _277
REMARK  116  A    between atoms: _276  and  _279
REMARK  117  A    between atoms: _279  and  _280
REMARK  118  A    between atoms: _283  and  _285
REMARK  119  A    between atoms: _285  and  _286
REMARK  120  A    between atoms: _285  and  _288
REMARK  121  A    between atoms: _288  and  _289
REMARK  122  A    between atoms: _289  and  _290
REMARK  123  A    between atoms: _290  and  _291
REMARK  124  A    between atoms: _300  and  _302
REMARK  125  A    between atoms: _302  and  _303
REMARK  126  A    between atoms: _302  and  _305
REMARK  127  A    between atoms: _305  and  _306
REMARK  128  A    between atoms: _309  and  _311
REMARK  129  A    between atoms: _311  and  _312
REMARK  130  A    between atoms: _311  and  _314
REMARK  131  A    between atoms: _314  and  _315
REMARK  132  A    between atoms: _318  and  _320
REMARK  133  A    between atoms: _320  and  _321
REMARK  134  A    between atoms: _320  and  _323
REMARK  135  A    between atoms: _323  and  _324
REMARK  136  A    between atoms: _327  and  _329
REMARK  137  A    between atoms: _329  and  _330
REMARK  138  A    between atoms: _329  and  _332
REMARK  139  A    between atoms: _332  and  _333
REMARK  140  A    between atoms: _336  and  _338
REMARK  141  A    between atoms: _338  and  _339
REMARK  142  A    between atoms: _341  and  _343
REMARK  143  A    between atoms: _343  and  _344
REMARK  144  A    between atoms: _347  and  _349
REMARK  145  A    between atoms: _349  and  _350
REMARK  146  A    between atoms: _349  and  _352
REMARK  147  A    between atoms: _352  and  _353
REMARK  148  A    between atoms: _356  and  _358
REMARK  149  A    between atoms: _358  and  _359
REMARK  150  A    between atoms: _358  and  _361
REMARK  151  A    between atoms: _361  and  _362
REMARK  152  A    between atoms: _365  and  _367
REMARK  153  A    between atoms: _367  and  _368
REMARK  154  A    between atoms: _367  and  _370
REMARK  155  A    between atoms: _370  and  _371
REMARK  156  A    between atoms: _374  and  _376
REMARK  157  A    between atoms: _376  and  _377
REMARK  158  A    between atoms: _376  and  _379
REMARK  159  A    between atoms: _382  and  _384
REMARK  160  A    between atoms: _384  and  _385
REMARK  161  A    between atoms: _384  and  _387
REMARK  162  A    between atoms: _387  and  _388
REMARK  163  A    between atoms: _388  and  _389
REMARK  164  A    between atoms: _389  and  _390
REMARK  165  A    between atoms: _390  and  _391
REMARK  166  A    between atoms: _395  and  _397
REMARK  167  A    between atoms: _397  and  _398
REMARK  168  A    between atoms: _397  and  _400
REMARK  169  A    between atoms: _400  and  _401
REMARK  170  A    between atoms: _401  and  _402
REMARK  171  A    between atoms: _404  and  _406
REMARK  172  A    between atoms: _406  and  _407
REMARK  173  A    between atoms: _406  and  _409
REMARK  174  A    between atoms: _409  and  _410
REMARK  175  A    between atoms: _413  and  _415
REMARK  176  A    between atoms: _415  and  _416
REMARK  177  A    between atoms: _418  and  _420
REMARK  178  A    between atoms: _420  and  _421
REMARK  179  A    between atoms: _423  and  _425
REMARK  180  A    between atoms: _425  and  _426
REMARK  181  A    between atoms: _425  and  _428
REMARK  182  A    between atoms: _428  and  _429
REMARK  183  A    between atoms: _432  and  _434
REMARK  184  A    between atoms: _434  and  _435
REMARK  185  A    between atoms: _437  and  _439
REMARK  186  A    between atoms: _439  and  _440
REMARK  187  A    between atoms: _442  and  _444
REMARK  188  A    between atoms: _444  and  _445
REMARK  189  A    between atoms: _444  and  _447
REMARK  190  A    between atoms: _447  and  _448
REMARK  191  A    between atoms: _454  and  _456
REMARK  192  A    between atoms: _456  and  _457
REMARK  193  A    between atoms: _456  and  _459
REMARK  194  A    between atoms: _459  and  _460
REMARK  195  A    between atoms: _463  and  _465
REMARK  196  A    between atoms: _465  and  _466
REMARK  197  A    between atoms: _465  and  _468
REMARK  198  A    between atoms: _471  and  _473
REMARK  199  A    between atoms: _473  and  _474
REMARK  200  A    between atoms: _473  and  _476
REMARK  201  A    between atoms: _476  and  _477
REMARK  202  A    between atoms: _481  and  _482
REMARK  203  A    between atoms: _487  and  _489
REMARK  204  A    between atoms: _489  and  _490
REMARK  205  A    between atoms: _489  and  _492
REMARK  206  A    between atoms: _492  and  _493
REMARK  207  A    between atoms: _497  and  _498
REMARK  208  A    between atoms: _503  and  _505
REMARK  209  A    between atoms: _505  and  _506
REMARK  210  A    between atoms: _505  and  _508
REMARK  211  A    between atoms: _511  and  _513
REMARK  212  A    between atoms: _513  and  _514
REMARK  213  A    between atoms: _513  and  _516
REMARK  214  A    between atoms: _516  and  _517
REMARK  215  A    between atoms: _522  and  _524
REMARK  216  A    between atoms: _524  and  _525
REMARK  217  A    between atoms: _524  and  _527
REMARK  218  A    between atoms: _527  and  _528
REMARK  219  A    between atoms: _531  and  _533
REMARK  220  A    between atoms: _533  and  _534
REMARK  221  A    between atoms: _533  and  _536
REMARK  222  A    between atoms: _536  and  _537
REMARK  223  A    between atoms: _540  and  _542
REMARK  224  A    between atoms: _542  and  _543
REMARK  225  A    between atoms: _545  and  _547
REMARK  226  A    between atoms: _547  and  _548
REMARK  227  A    between atoms: _547  and  _550
REMARK  228  A    between atoms: _550  and  _551
REMARK  229  A    between atoms: _551  and  _552
REMARK  230  A    between atoms: _552  and  _553
REMARK  231  A    between atoms: _562  and  _564
REMARK  232  A    between atoms: _564  and  _565
REMARK  233  A    between atoms: _564  and  _567
REMARK  234  A    between atoms: _567  and  _568
REMARK                            x       y       z     vdW  Elec       q    Type
REMARK                         _______ _______ _______ _____ _____    ______ ____
ROOT
ATOM      1  CA  LEU A   1      15.973  29.906  27.481  0.00  0.00    +0.133 C 
ENDROOT
BRANCH   1   2
ATOM      2  N   LEU A   1      16.845  29.075  28.298  0.00  0.00    -0.239 NA
ATOM      3  H   LEU A   1      16.995  28.087  28.011  0.00  0.00    +0.142 HD
ENDBRANCH   1   2
BRANCH   1   4
ATOM      4  C   LEU A   1      14.521  29.663  27.929  0.00  0.00    +0.224 C 
ATOM      5  O   LEU A   1      14.082  28.526  28.080  0.00  0.00    -0.287 OA
ENDBRANCH   1   4
BRANCH   1   6
ATOM      6  CB  LEU A   1      16.134  29.633  25.979  0.00  0.00    +0.025 C 
BRANCH   6   7
ATOM      7  CG  LEU A   1      17.565  29.630  25.443  0.00  0.00    +0.002 C 
ATOM      8  CD2 LEU A   1      18.263  30.959  25.638  0.00  0.00    +0.000 C 
ATOM      9  CD1 LEU A   1      17.644  29.251  23.975  0.00  0.00    +0.000 C 
ENDBRANCH   6   7
ENDBRANCH   1   6
TORSDOF 4
REMARK  Name = ../refined-set-2016/3vfb/3vfb_pocket.pdb
REMARK  234 active torsions:
REMARK  status: ('A' for Active; 'I' for Inactive)
REMARK    1  A    between atoms: _1  and  _3
REMARK    2  A    between atoms: _3  and  _4
REMARK    3  A    between atoms: _3  and  _6
REMARK    4  A    between atoms: _6  and  _7
REMARK    5  A    between atoms: _7  and  _8
REMARK    6  A    between atoms: _8  and  _9
REMARK    7  A    between atoms: _18  and  _20
REMARK    8  A    between atoms: _20  and  _21
REMARK    9  A    between atoms: _20  and  _23
REMARK   10  A    between atoms: _23  and  _24
REMARK   11  A    between atoms: _27  and  _29
REMARK   12  A    between atoms: _29  and  _30
REMARK   13  A    between atoms: _29  and  _32
REMARK   14  A    between atoms: _32  and  _33
REMARK   15  A    between atoms: _36  and  _38
REMARK   16  A    between atoms: _38  and  _39
REMARK   17  A    between atoms: _38  and  _41
REMARK   18  A    between atoms: _41  and  _42
REMARK   19  A    between atoms: _45  and  _47
REMARK   20  A    between atoms: _47  and  _48
REMARK   21  A    between atoms: _47  and  _50
REMARK   22  A    between atoms: _50  and  _51
REMARK   23  A    between atoms: _54  and  _56
REMARK   24  A    between atoms: _56  and  _57
REMARK   25  A    between atoms: _56  and  _59
REMARK   26  A    between atoms: _59  and  _60
REMARK   27  A    between atoms: _63  and  _65
REMARK   28  A    between atoms: _65  and  _66
REMARK   29  A    between atoms: _68  and  _70
REMARK   30  A    between atoms: _70  and  _71
REMARK   31  A    between atoms: _74  and  _76
REMARK   32  A    between atoms: _76  and  _77
REMARK   33  A    between atoms: _76  and  _79
REMARK   34  A    between atoms: _79  and  _80
REMARK   35  A    between atoms: _83  and  _85
REMARK   36  A    between atoms: _85  and  _86
REMARK   37  A    between atoms: _85  and  _88
REMARK   38  A    between atoms: _88  and  _89
REMARK   39  A    between atoms: _92  and  _94
REMARK   40  A    between atoms: _94  and  _95
REMARK   41  A    between atoms: _94  and  _97
REMARK   42  A    between atoms: _97  and  _98
REMARK   43  A    between atoms: _101  and  _103
REMARK   44  A    between atoms: _103  and  _104
REMARK   45  A    between atoms: _103  and  _106
REMARK   46  A    between atoms: _109  and  _111
REMARK   47  A    between atoms: _111  and  _112
REMARK   48  A    between atoms: _111  and  _114
REMARK   49  A    between atoms: _114  and  _115
REMARK   50  A    between atoms: _115  and  _116
REMARK   51  A    between atoms: _116  and  _117
REMARK   52  A    between atoms: _117  and  _118
REMARK   53  A    between atoms: _122  and  _124
REMARK   54  A    between atoms: _124  and  _125
REMARK   55  A    between atoms: _124  and  _127
REMARK   56  A    between atoms: _127  and  _128
REMARK   57  A    between atoms: _128  and  _129
REMARK   58  A    between atoms: _131  and  _133
REMARK   59  A    between atoms: _133  and  _134
REMARK   60  A    between atoms: _133  and  _136
REMARK   61  A    between atoms: _136  and  _137
REMARK   62  A    between atoms: _140  and  _142
REMARK   63  A    between atoms: _142  and  _143
REMARK   64  A    between atoms: _145  and  _147
REMARK   65  A    between atoms: _147  and  _148
REMARK   66  A    between atoms: _150  and  _152
REMARK   67  A    between atoms: _152  and  _153
REMARK   68  A    between atoms: _152  and  _155
REMARK   69  A    between atoms: _155  and  _156
REMARK   70  A    between atoms: _159  and  _161
REMARK   71  A    between atoms: _161  and  _162
REMARK   72  A    between atoms: _164  and  _166
REMARK   73  A    between atoms: _166  and  _167
REMARK   74  A    between atoms: _169  and  _171
REMARK   75  A    between atoms: _171  and  _172
REMARK   76  A    between atoms: _171  and  _174
REMARK   77  A    between atoms: _174  and  _175
REMARK   78  A    between atoms: _181  and  _183
REMARK   79  A    between atoms: _183  and  _184
REMARK   80  A    between atoms: _183  and  _186
REMARK   81  A    between atoms: _186  and  _187
REMARK   82  A    between atoms: _190  and  _192
REMARK   83  A    between atoms: _192  and  _193
REMARK   84  A    between atoms: _192  and  _195
REMARK   85  A    between atoms: _195  and  _196
REMARK   86  A    between atoms: _199  and  _201
REMARK   87  A    between atoms: _201  and  _202
REMARK   88  A    between atoms: _201  and  _204
REMARK   89  A    between atoms: _204  and  _205
REMARK   90  A    between atoms: _209  and  _210
REMARK   91  A    between atoms: _215  and  _217
REMARK   92  A    between atoms: _217  and  _218
REMARK   93  A    between atoms: _217  and  _220
REMARK   94  A    between atoms: _223  and  _225
REMARK   95  A    between atoms: _225  and  _226
REMARK   96  A    between atoms: _225  and  _228
REMARK   97  A    between atoms: _228  and  _229
REMARK   98  A    between atoms: _234  and  _236
REMARK   99  A    between atoms: _236  and  _237
REMARK  100  A    between atoms: _236  and  _239
REMARK  101  A    between atoms: _239  and  _240
REMARK  102  A    between atoms: _243  and  _245
REMARK  103  A    between atoms: _245  and  _246
REMARK  104  A    between atoms: _245  and  _248
REMARK  105  A    between atoms: _248  and  _249
REMARK  106  A    between atoms: _252  and  _254
REMARK  107  A    between atoms: _254  and  _255
REMARK  108  A    between atoms: _257  and  _259
REMARK  109  A    between atoms: _259  and  _260
REMARK  110  A    between atoms: _259  and  _262
REMARK  111  A    between atoms: _262  and  _263
REMARK  112  A    between atoms: _263  and  _264
REMARK  113  A    between atoms: _264  and  _265
REMARK  114  A    between atoms: _274  and  _276
REMARK  115  A    between atoms: _276  and  _277
REMARK  116  A    between atoms: _276  and  _279
REMARK  117  A    between atoms: _279  and  _280
REMARK  118  A    between atoms: _283  and  _285
REMARK  119  A    between atoms: _285  and  _286
REMARK  120  A    between atoms: _285  and  _288
REMARK  121  A    between atoms: _288  and  _289
REMARK  122  A    between atoms: _289  and  _290
REMARK  123  A    between atoms: _290  and  _291
REMARK  124  A    between atoms: _300  and  _302
REMARK  125  A    between atoms: _302  and  _303
REMARK  126  A    between atoms: _302  and  _305
REMARK  127  A    between atoms: _305  and  _306
REMARK  128  A    between atoms: _309  and  _311
REMARK  129  A    between atoms: _311  and  _312
REMARK  130  A    between atoms: _311  and  _314
REMARK  131  A    between atoms: _314  and  _315
REMARK  132  A    between atoms: _318  and  _320
REMARK  133  A    between atoms: _320  and  _321
REMARK  134  A    between atoms: _320  and  _323
REMARK  135  A    between atoms: _323  and  _324
REMARK  136  A    between atoms: _327  and  _329
REMARK  137  A    between atoms: _329  and  _330
REMARK  138  A    between atoms: _329  and  _332
REMARK  139  A    between atoms: _332  and  _333
REMARK  140  A    between atoms: _336  and  _338
REMARK  141  A    between atoms: _338  and  _339
REMARK  142  A    between atoms: _341  and  _343
REMARK  143  A    between atoms: _343  and  _344
REMARK  144  A    between atoms: _347  and  _349
REMARK  145  A    between atoms: _349  and  _350
REMARK  146  A    between atoms: _349  and  _352
REMARK  147  A    between atoms: _352  and  _353
REMARK  148  A    between atoms: _356  and  _358
REMARK  149  A    between atoms: _358  and  _359
REMARK  150  A    between atoms: _358  and  _361
REMARK  151  A    between atoms: _361  and  _362
REMARK  152  A    between atoms: _365  and  _367
REMARK  153  A    between atoms: _367  and  _368
REMARK  154  A    between atoms: _367  and  _370
REMARK  155  A    between atoms: _370  and  _371
REMARK  156  A    between atoms: _374  and  _376
REMARK  157  A    between atoms: _376  and  _377
REMARK  158  A    between atoms: _376  and  _379
REMARK  159  A    between atoms: _382  and  _384
REMARK  160  A    between atoms: _384  and  _385
REMARK  161  A    between atoms: _384  and  _387
REMARK  162  A    between atoms: _387  and  _388
REMARK  163  A    between atoms: _388  and  _389
REMARK  164  A    between atoms: _389  and  _390
REMARK  165  A    between atoms: _390  and  _391
REMARK  166  A    between atoms: _395  and  _397
REMARK  167  A    between atoms: _397  and  _398
REMARK  168  A    between atoms: _397  and  _400
REMARK  169  A    between atoms: _400  and  _401
REMARK  170  A    between atoms: _401  and  _402
REMARK  171  A    between atoms: _404  and  _406
REMARK  172  A    between atoms: _406  and  _407
REMARK  173  A    between atoms: _406  and  _409
REMARK  174  A    between atoms: _409  and  _410
REMARK  175  A    between atoms: _413  and  _415
REMARK  176  A    between atoms: _415  and  _416
REMARK  177  A    between atoms: _418  and  _420
REMARK  178  A    between atoms: _420  and  _421
REMARK  179  A    between atoms: _423  and  _425
REMARK  180  A    between atoms: _425  and  _426
REMARK  181  A    between atoms: _425  and  _428
REMARK  182  A    between atoms: _428  and  _429
REMARK  183  A    between atoms: _432  and  _434
REMARK  184  A    between atoms: _434  and  _435
REMARK  185  A    between atoms: _437  and  _439
REMARK  186  A    between atoms: _439  and  _440
REMARK  187  A    between atoms: _442  and  _444
REMARK  188  A    between atoms: _444  and  _445
REMARK  189  A    between atoms: _444  and  _447
REMARK  190  A    between atoms: _447  and  _448
REMARK  191  A    between atoms: _454  and  _456
REMARK  192  A    between atoms: _456  and  _457
REMARK  193  A    between atoms: _456  and  _459
REMARK  194  A    between atoms: _459  and  _460
REMARK  195  A    between atoms: _463  and  _465
REMARK  196  A    between atoms: _465  and  _466
REMARK  197  A    between atoms: _465  and  _468
REMARK  198  A    between atoms: _471  and  _473
REMARK  199  A    between atoms: _473  and  _474
REMARK  200  A    between atoms: _473  and  _476
REMARK  201  A    between atoms: _476  and  _477
REMARK  202  A    between atoms: _481  and  _482
REMARK  203  A    between atoms: _487  and  _489
REMARK  204  A    between atoms: _489  and  _490
REMARK  205  A    between atoms: _489  and  _492
REMARK  206  A    between atoms: _492  and  _493
REMARK  207  A    between atoms: _497  and  _498
REMARK  208  A    between atoms: _503  and  _505
REMARK  209  A    between atoms: _505  and  _506
REMARK  210  A    between atoms: _505  and  _508
REMARK  211  A    between atoms: _511  and  _513
REMARK  212  A    between atoms: _513  and  _514
REMARK  213  A    between atoms: _513  and  _516
REMARK  214  A    between atoms: _516  and  _517
REMARK  215  A    between atoms: _522  and  _524
REMARK  216  A    between atoms: _524  and  _525
REMARK  217  A    between atoms: _524  and  _527
REMARK  218  A    between atoms: _527  and  _528
REMARK  219  A    between atoms: _531  and  _533
REMARK  220  A    between atoms: _533  and  _534
REMARK  221  A    between atoms: _533  and  _536
REMARK  222  A    between atoms: _536  and  _537
REMARK  223  A    between atoms: _540  and  _542
REMARK  224  A    between atoms: _542  and  _543
REMARK  225  A    between atoms: _545  and  _547
REMARK  226  A    between atoms: _547  and  _548
REMARK  227  A    between atoms: _547  and  _550
REMARK  228  A    between atoms: _550  and  _551
REMARK  229  A    between atoms: _551  and  _552
REMARK  230  A    between atoms: _552  and  _553
REMARK  231  A    between atoms: _562  and  _564
REMARK  232  A    between atoms: _564  and  _565
REMARK  233  A    between atoms: _564  and  _567
REMARK  234  A    between atoms: _567  and  _568
REMARK                            x       y       z     vdW  Elec       q    Type
REMARK                         _______ _______ _______ _____ _____    ______ ____
ROOT
ATOM      1  CA  ILE A   5      13.510  20.557  26.247  0.00  0.00    +0.149 C 
ENDROOT
BRANCH   1   4
ATOM      2  C   ASN A   4      11.477  20.800  27.516  0.00  0.00    +0.241 C 
ATOM      3  O   ASN A   4      11.274  19.573  27.553  0.00  0.00    -0.273 OA
ATOM      4  N   ILE A   5      12.506  21.388  26.914  0.00  0.00    -0.297 N 
ATOM      5  H   ILE A   5      12.597  22.424  26.917  0.00  0.00    +0.150 HD
BRANCH   2   6
ATOM      6  CA  ASN A   4      10.441  21.673  28.208  0.00  0.00    +0.158 C 
BRANCH   6   8
ATOM      7  C   VAL A   3       8.791  21.549  26.439  0.00  0.00    +0.241 C 
ATOM      8  N   ASN A   4       9.123  21.312  27.703  0.00  0.00    -0.297 N 
ATOM      9  H   ASN A   4       8.434  20.863  28.340  0.00  0.00    +0.150 HD
ATOM     10  O   VAL A   3       9.525  22.166  25.655  0.00  0.00    -0.273 OA
BRANCH   7  11
ATOM     11  CA  VAL A   3       7.462  21.013  25.921  0.00  0.00    +0.149 C 
BRANCH  11  14
ATOM     12  C   PRO A   2       5.744  22.145  24.549  0.00  0.00    +0.241 C 
ATOM     13  O   PRO A   2       4.733  21.721  25.113  0.00  0.00    -0.273 OA
ATOM     14  N   VAL A   3       7.002  21.902  24.864  0.00  0.00    -0.297 N 
ATOM     15  H   VAL A   3       7.732  22.390  24.306  0.00  0.00    +0.150 HD
BRANCH  12  19
ATOM     16  C   THR A   1       6.863  24.879  23.922  0.00  0.00    +0.244 C 
ATOM     17  O   THR A   1       6.220  24.970  24.954  0.00  0.00    -0.273 OA
ATOM     18  N   PRO A   2       6.592  23.944  23.035  0.00  0.00    -0.272 N 
ATOM     19  CA  PRO A   2       5.499  23.032  23.331  0.00  0.00    +0.152 C 
ATOM     20  CB  PRO A   2       5.460  22.109  22.115  0.00  0.00    +0.031 C 
ATOM     21  CG  PRO A   2       6.301  22.728  21.067  0.00  0.00    +0.024 C 
ATOM     22  CD  PRO A   2       7.224  23.676  21.740  0.00  0.00    +0.094 C 
BRANCH  16  23
ATOM     23  CA  THR A   1       8.001  25.824  23.569  0.00  0.00    +0.172 C 
BRANCH  23  24
ATOM     24  N   THR A   1       7.655  27.133  24.056  0.00  0.00    -0.236 NA
ATOM     25  H   THR A   1       7.866  27.349  25.051  0.00  0.00    +0.142 HD
ENDBRANCH  23  24
BRANCH  23  26
ATOM     26  CB  THR A   1       9.328  25.303  24.153  0.00  0.00    +0.135 C 
ATOM     27  CG2 THR A   1       9.276  25.230  25.657  0.00  0.00    +0.034 C 
BRANCH  26  28
ATOM     28  OG1 THR A   1       9.545  23.971  23.691  0.00  0.00    -0.383 OA
ATOM     29  HG1 THR A   1       8.798  23.394  23.989  0.00  0.00    +0.210 HD
ENDBRANCH  26  28
ENDBRANCH  23  26
ENDBRANCH  16  23
ENDBRANCH  12  19
ENDBRANCH  11  14
BRANCH  11  30
ATOM     30  CB  VAL A   3       7.628  19.569  25.412  0.00  0.00    +0.027 C 
ATOM     31  CG2 VAL A   3       8.397  18.687  26.385  0.00  0.00    +0.002 C 
ATOM     32  CG1 VAL A   3       6.265  18.943  25.121  0.00  0.00    +0.002 C 
ENDBRANCH  11  30
ENDBRANCH   7  11
ENDBRANCH   6   8
BRANCH   6  33
ATOM     33  CB  ASN A   4      10.538  21.460  29.719  0.00  0.00    +0.114 C 
BRANCH  33  34
ATOM     34  CG  ASN A   4       9.568  22.351  30.462  0.00  0.00    +0.222 C 
ATOM     35  ND2 ASN A   4       8.910  21.786  31.454  0.00  0.00    -0.329 N 
ATOM     36 HD21 ASN A   4       8.217  22.337  31.999  0.00  0.00    +0.145 HD
ATOM     37 HD22 ASN A   4       9.084  20.789  31.692  0.00  0.00    +0.145 HD
ATOM     38  OD1 ASN A   4       9.431  23.525  30.105  0.00  0.00    -0.275 OA
ENDBRANCH  33  34
ENDBRANCH   6  33
ENDBRANCH   2   6
ENDBRANCH   1   4
BRANCH   1  39
ATOM     39  C   ILE A   5      14.902  20.803  26.823  0.00  0.00    +0.241 C 
ATOM     40  N   ILE A   6      15.591  19.704  27.111  0.00  0.00    -0.297 N 
ATOM     41  H   ILE A   6      15.121  18.783  27.001  0.00  0.00    +0.150 HD
ATOM     42  O   ILE A   5      15.341  21.922  27.030  0.00  0.00    -0.273 OA
BRANCH  40  43
ATOM     43  CA  ILE A   6      16.973  19.726  27.574  0.00  0.00    +0.149 C 
BRANCH  43  44
ATOM     44  C   ILE A   6      17.848  19.455  26.344  0.00  0.00    +0.241 C 
ATOM     45  N   GLY A   7      18.606  20.480  25.976  0.00  0.00    -0.295 N 
ATOM     46  H   GLY A   7      18.584  21.348  26.548  0.00  0.00    +0.150 HD
ATOM     47  O   ILE A   6      17.791  18.367  25.738  0.00  0.00    -0.273 OA
BRANCH  45  48
ATOM     48  CA  GLY A   7      19.462  20.438  24.810  0.00  0.00    +0.176 C 
BRANCH  48  49
ATOM     49  C   GLY A   7      20.880  20.037  25.130  0.00  0.00    +0.243 C 
ATOM     50  O   GLY A   7      21.214  19.698  26.267  0.00  0.00    -0.273 OA
ATOM     51  N   ARG A   8      21.720  20.049  24.097  0.00  0.00    -0.297 N 
ATOM     52  H   ARG A   8      21.415  20.458  23.191  0.00  0.00    +0.150 HD
BRANCH  51  53
ATOM     53  CA  ARG A   8      23.055  19.499  24.221  0.00  0.00    +0.149 C 
BRANCH  53  54
ATOM     54  C   ARG A   8      23.926  20.250  25.220  0.00  0.00    +0.241 C 
ATOM     55  O   ARG A   8      24.817  19.632  25.820  0.00  0.00    -0.273 OA
ATOM     56  N   ASP A   9      23.653  21.542  25.405  0.00  0.00    -0.298 N 
ATOM     57  H   ASP A   9      22.894  21.983  24.847  0.00  0.00    +0.150 HD
BRANCH  56  58
ATOM     58  CA  ASP A   9      24.390  22.358  26.371  0.00  0.00    +0.148 C 
BRANCH  58  59
ATOM     59  C   ASP A   9      24.386  21.654  27.736  0.00  0.00    +0.227 C 
ATOM     60  O   ASP A   9      25.421  21.428  28.378  0.00  0.00    -0.286 OA
ENDBRANCH  58  59
BRANCH  58  61
ATOM     61  CB  ASP A   9      23.840  23.768  26.460  0.00  0.00    +0.142 C 
BRANCH  61  62
ATOM     62  CG  ASP A   9      22.355  23.972  26.687  0.00  0.00    +0.367 C 
ATOM     63  OD2 ASP A   9      21.915  25.110  26.942  0.00  0.00    -0.246 OA
ATOM     64  OD1 ASP A   9      21.545  23.029  26.653  0.00  0.00    -0.246 OA
ENDBRANCH  61  62
ENDBRANCH  58  61
ENDBRANCH  56  58
ENDBRANCH  53  54
BRANCH  53  65
ATOM     65  CB  ARG A   8      23.763  19.468  22.863  0.00  0.00    +0.033 C 
BRANCH  65  66
ATOM     66  CG  ARG A   8      23.210  18.431  21.897  0.00  0.00    +0.045 C 
BRANCH  66  67
ATOM     67  CD  ARG A   8      24.004  18.282  20.610  0.00  0.00    +0.174 C 
BRANCH  67  68
ATOM     68  NE  ARG A   8      23.997  19.560  19.909  0.00  0.00    -0.265 N 
ATOM     69  CZ  ARG A   8      24.954  20.473  19.902  0.00  0.00    +0.342 C 
ATOM     70  NH2 ARG A   8      26.106  20.329  20.550  0.00  0.00    -0.292 N 
ATOM     71 HH21 ARG A   8      26.290  19.464  21.098  0.00  0.00    +0.255 HD
ATOM     72 HH22 ARG A   8      26.823  21.081  20.509  0.00  0.00    +0.255 HD
ATOM     73  NH1 ARG A   8      24.727  21.582  19.197  0.00  0.00    -0.292 N 
ATOM     74 HH11 ARG A   8      25.448  22.331  19.159  0.00  0.00    +0.255 HD
ATOM     75 HH12 ARG A   8      23.829  21.698  18.685  0.00  0.00    +0.255 HD
ATOM     76  HE  ARG A   8      23.146  19.778  19.353  0.00  0.00    +0.259 HD
ENDBRANCH  67  68
ENDBRANCH  66  67
ENDBRANCH  65  66
ENDBRANCH  53  65
ENDBRANCH  51  53
ENDBRANCH  48  49
ENDBRANCH  45  48
ENDBRANCH  43  44
BRANCH  43  77
ATOM     77  CB  ILE A   6      17.242  18.705  28.675  0.00  0.00    +0.027 C 
ATOM     78  CG2 ILE A   6      18.678  18.779  29.165  0.00  0.00    +0.002 C 
BRANCH  77  79
ATOM     79  CG1 ILE A   6      16.269  18.848  29.855  0.00  0.00    +0.002 C 
ATOM     80  CD1 ILE A   6      16.185  20.211  30.509  0.00  0.00    +0.000 C 
ENDBRANCH  77  79
ENDBRANCH  43  77
ENDBRANCH  40  43
ENDBRANCH   1  39
BRANCH   1  81
ATOM     81  CB  ILE A   5      13.509  20.744  24.716  0.00  0.00    +0.027 C 
ATOM     82  CG2 ILE A   5      12.200  20.197  24.129  0.00  0.00    +0.002 C 
BRANCH  81  83
ATOM     83  CG1 ILE A   5      13.753  22.167  24.221  0.00  0.00    +0.002 C 
ATOM     84  CD1 ILE A   5      13.793  22.356  22.723  0.00  0.00    +0.000 C 
ENDBRANCH  81  83
ENDBRANCH   1  81
TORSDOF 32
REMARK  Name = ../refined-set-2016/3vfb/3vfb_pocket.pdb
REMARK  234 active torsions:
REMARK  status: ('A' for Active; 'I' for Inactive)
REMARK    1  A    between atoms: _1  and  _3
REMARK    2  A    between atoms: _3  and  _4
REMARK    3  A    between atoms: _3  and  _6
REMARK    4  A    between atoms: _6  and  _7
REMARK    5  A    between atoms: _7  and  _8
REMARK    6  A    between atoms: _8  and  _9
REMARK    7  A    between atoms: _18  and  _20
REMARK    8  A    between atoms: _20  and  _21
REMARK    9  A    between atoms: _20  and  _23
REMARK   10  A    between atoms: _23  and  _24
REMARK   11  A    between atoms: _27  and  _29
REMARK   12  A    between atoms: _29  and  _30
REMARK   13  A    between atoms: _29  and  _32
REMARK   14  A    between atoms: _32  and  _33
REMARK   15  A    between atoms: _36  and  _38
REMARK   16  A    between atoms: _38  and  _39
REMARK   17  A    between atoms: _38  and  _41
REMARK   18  A    between atoms: _41  and  _42
REMARK   19  A    between atoms: _45  and  _47
REMARK   20  A    between atoms: _47  and  _48
REMARK   21  A    between atoms: _47  and  _50
REMARK   22  A    between atoms: _50  and  _51
REMARK   23  A    between atoms: _54  and  _56
REMARK   24  A    between atoms: _56  and  _57
REMARK   25  A    between atoms: _56  and  _59
REMARK   26  A    between atoms: _59  and  _60
REMARK   27  A    between atoms: _63  and  _65
REMARK   28  A    between atoms: _65  and  _66
REMARK   29  A    between atoms: _68  and  _70
REMARK   30  A    between atoms: _70  and  _71
REMARK   31  A    between atoms: _74  and  _76
REMARK   32  A    between atoms: _76  and  _77
REMARK   33  A    between atoms: _76  and  _79
REMARK   34  A    between atoms: _79  and  _80
REMARK   35  A    between atoms: _83  and  _85
REMARK   36  A    between atoms: _85  and  _86
REMARK   37  A    between atoms: _85  and  _88
REMARK   38  A    between atoms: _88  and  _89
REMARK   39  A    between atoms: _92  and  _94
REMARK   40  A    between atoms: _94  and  _95
REMARK   41  A    between atoms: _94  and  _97
REMARK   42  A    between atoms: _97  and  _98
REMARK   43  A    between atoms: _101  and  _103
REMARK   44  A    between atoms: _103  and  _104
REMARK   45  A    between atoms: _103  and  _106
REMARK   46  A    between atoms: _109  and  _111
REMARK   47  A    between atoms: _111  and  _112
REMARK   48  A    between atoms: _111  and  _114
REMARK   49  A    between atoms: _114  and  _115
REMARK   50  A    between atoms: _115  and  _116
REMARK   51  A    between atoms: _116  and  _117
REMARK   52  A    between atoms: _117  and  _118
REMARK   53  A    between atoms: _122  and  _124
REMARK   54  A    between atoms: _124  and  _125
REMARK   55  A    between atoms: _124  and  _127
REMARK   56  A    between atoms: _127  and  _128
REMARK   57  A    between atoms: _128  and  _129
REMARK   58  A    between atoms: _131  and  _133
REMARK   59  A    between atoms: _133  and  _134
REMARK   60  A    between atoms: _133  and  _136
REMARK   61  A    between atoms: _136  and  _137
REMARK   62  A    between atoms: _140  and  _142
REMARK   63  A    between atoms: _142  and  _143
REMARK   64  A    between atoms: _145  and  _147
REMARK   65  A    between atoms: _147  and  _148
REMARK   66  A    between atoms: _150  and  _152
REMARK   67  A    between atoms: _152  and  _153
REMARK   68  A    between atoms: _152  and  _155
REMARK   69  A    between atoms: _155  and  _156
REMARK   70  A    between atoms: _159  and  _161
REMARK   71  A    between atoms: _161  and  _162
REMARK   72  A    between atoms: _164  and  _166
REMARK   73  A    between atoms: _166  and  _167
REMARK   74  A    between atoms: _169  and  _171
REMARK   75  A    between atoms: _171  and  _172
REMARK   76  A    between atoms: _171  and  _174
REMARK   77  A    between atoms: _174  and  _175
REMARK   78  A    between atoms: _181  and  _183
REMARK   79  A    between atoms: _183  and  _184
REMARK   80  A    between atoms: _183  and  _186
REMARK   81  A    between atoms: _186  and  _187
REMARK   82  A    between atoms: _190  and  _192
REMARK   83  A    between atoms: _192  and  _193
REMARK   84  A    between atoms: _192  and  _195
REMARK   85  A    between atoms: _195  and  _196
REMARK   86  A    between atoms: _199  and  _201
REMARK   87  A    between atoms: _201  and  _202
REMARK   88  A    between atoms: _201  and  _204
REMARK   89  A    between atoms: _204  and  _205
REMARK   90  A    between atoms: _209  and  _210
REMARK   91  A    between atoms: _215  and  _217
REMARK   92  A    between atoms: _217  and  _218
REMARK   93  A    between atoms: _217  and  _220
REMARK   94  A    between atoms: _223  and  _225
REMARK   95  A    between atoms: _225  and  _226
REMARK   96  A    between atoms: _225  and  _228
REMARK   97  A    between atoms: _228  and  _229
REMARK   98  A    between atoms: _234  and  _236
REMARK   99  A    between atoms: _236  and  _237
REMARK  100  A    between atoms: _236  and  _239
REMARK  101  A    between atoms: _239  and  _240
REMARK  102  A    between atoms: _243  and  _245
REMARK  103  A    between atoms: _245  and  _246
REMARK  104  A    between atoms: _245  and  _248
REMARK  105  A    between atoms: _248  and  _249
REMARK  106  A    between atoms: _252  and  _254
REMARK  107  A    between atoms: _254  and  _255
REMARK  108  A    between atoms: _257  and  _259
REMARK  109  A    between atoms: _259  and  _260
REMARK  110  A    between atoms: _259  and  _262
REMARK  111  A    between atoms: _262  and  _263
REMARK  112  A    between atoms: _263  and  _264
REMARK  113  A    between atoms: _264  and  _265
REMARK  114  A    between atoms: _274  and  _276
REMARK  115  A    between atoms: _276  and  _277
REMARK  116  A    between atoms: _276  and  _279
REMARK  117  A    between atoms: _279  and  _280
REMARK  118  A    between atoms: _283  and  _285
REMARK  119  A    between atoms: _285  and  _286
REMARK  120  A    between atoms: _285  and  _288
REMARK  121  A    between atoms: _288  and  _289
REMARK  122  A    between atoms: _289  and  _290
REMARK  123  A    between atoms: _290  and  _291
REMARK  124  A    between atoms: _300  and  _302
REMARK  125  A    between atoms: _302  and  _303
REMARK  126  A    between atoms: _302  and  _305
REMARK  127  A    between atoms: _305  and  _306
REMARK  128  A    between atoms: _309  and  _311
REMARK  129  A    between atoms: _311  and  _312
REMARK  130  A    between atoms: _311  and  _314
REMARK  131  A    between atoms: _314  and  _315
REMARK  132  A    between atoms: _318  and  _320
REMARK  133  A    between atoms: _320  and  _321
REMARK  134  A    between atoms: _320  and  _323
REMARK  135  A    between atoms: _323  and  _324
REMARK  136  A    between atoms: _327  and  _329
REMARK  137  A    between atoms: _329  and  _330
REMARK  138  A    between atoms: _329  and  _332
REMARK  139  A    between atoms: _332  and  _333
REMARK  140  A    between atoms: _336  and  _338
REMARK  141  A    between atoms: _338  and  _339
REMARK  142  A    between atoms: _341  and  _343
REMARK  143  A    between atoms: _343  and  _344
REMARK  144  A    between atoms: _347  and  _349
REMARK  145  A    between atoms: _349  and  _350
REMARK  146  A    between atoms: _349  and  _352
REMARK  147  A    between atoms: _352  and  _353
REMARK  148  A    between atoms: _356  and  _358
REMARK  149  A    between atoms: _358  and  _359
REMARK  150  A    between atoms: _358  and  _361
REMARK  151  A    between atoms: _361  and  _362
REMARK  152  A    between atoms: _365  and  _367
REMARK  153  A    between atoms: _367  and  _368
REMARK  154  A    between atoms: _367  and  _370
REMARK  155  A    between atoms: _370  and  _371
REMARK  156  A    between atoms: _374  and  _376
REMARK  157  A    between atoms: _376  and  _377
REMARK  158  A    between atoms: _376  and  _379
REMARK  159  A    between atoms: _382  and  _384
REMARK  160  A    between atoms: _384  and  _385
REMARK  161  A    between atoms: _384  and  _387
REMARK  162  A    between atoms: _387  and  _388
REMARK  163  A    between atoms: _388  and  _389
REMARK  164  A    between atoms: _389  and  _390
REMARK  165  A    between atoms: _390  and  _391
REMARK  166  A    between atoms: _395  and  _397
REMARK  167  A    between atoms: _397  and  _398
REMARK  168  A    between atoms: _397  and  _400
REMARK  169  A    between atoms: _400  and  _401
REMARK  170  A    between atoms: _401  and  _402
REMARK  171  A    between atoms: _404  and  _406
REMARK  172  A    between atoms: _406  and  _407
REMARK  173  A    between atoms: _406  and  _409
REMARK  174  A    between atoms: _409  and  _410
REMARK  175  A    between atoms: _413  and  _415
REMARK  176  A    between atoms: _415  and  _416
REMARK  177  A    between atoms: _418  and  _420
REMARK  178  A    between atoms: _420  and  _421
REMARK  179  A    between atoms: _423  and  _425
REMARK  180  A    between atoms: _425  and  _426
REMARK  181  A    between atoms: _425  and  _428
REMARK  182  A    between atoms: _428  and  _429
REMARK  183  A    between atoms: _432  and  _434
REMARK  184  A    between atoms: _434  and  _435
REMARK  185  A    between atoms: _437  and  _439
REMARK  186  A    between atoms: _439  and  _440
REMARK  187  A    between atoms: _442  and  _444
REMARK  188  A    between atoms: _444  and  _445
REMARK  189  A    between atoms: _444  and  _447
REMARK  190  A    between atoms: _447  and  _448
REMARK  191  A    between atoms: _454  and  _456
REMARK  192  A    between atoms: _456  and  _457
REMARK  193  A    between atoms: _456  and  _459
REMARK  194  A    between atoms: _459  and  _460
REMARK  195  A    between atoms: _463  and  _465
REMARK  196  A    between atoms: _465  and  _466
REMARK  197  A    between atoms: _465  and  _468
REMARK  198  A    between atoms: _471  and  _473
REMARK  199  A    between atoms: _473  and  _474
REMARK  200  A    between atoms: _473  and  _476
REMARK  201  A    between atoms: _476  and  _477
REMARK  202  A    between atoms: _481  and  _482
REMARK  203  A    between atoms: _487  and  _489
REMARK  204  A    between atoms: _489  and  _490
REMARK  205  A    between atoms: _489  and  _492
REMARK  206  A    between atoms: _492  and  _493
REMARK  207  A    between atoms: _497  and  _498
REMARK  208  A    between atoms: _503  and  _505
REMARK  209  A    between atoms: _505  and  _506
REMARK  210  A    between atoms: _505  and  _508
REMARK  211  A    between atoms: _511  and  _513
REMARK  212  A    between atoms: _513  and  _514
REMARK  213  A    between atoms: _513  and  _516
REMARK  214  A    between atoms: _516  and  _517
REMARK  215  A    between atoms: _522  and  _524
REMARK  216  A    between atoms: _524  and  _525
REMARK  217  A    between atoms: _524  and  _527
REMARK  218  A    between atoms: _527  and  _528
REMARK  219  A    between atoms: _531  and  _533
REMARK  220  A    between atoms: _533  and  _534
REMARK  221  A    between atoms: _533  and  _536
REMARK  222  A    between atoms: _536  and  _537
REMARK  223  A    between atoms: _540  and  _542
REMARK  224  A    between atoms: _542  and  _543
REMARK  225  A    between atoms: _545  and  _547
REMARK  226  A    between atoms: _547  and  _548
REMARK  227  A    between atoms: _547  and  _550
REMARK  228  A    between atoms: _550  and  _551
REMARK  229  A    between atoms: _551  and  _552
REMARK  230  A    between atoms: _552  and  _553
REMARK  231  A    between atoms: _562  and  _564
REMARK  232  A    between atoms: _564  and  _565
REMARK  233  A    between atoms: _564  and  _567
REMARK  234  A    between atoms: _567  and  _568
REMARK                            x       y       z     vdW  Elec       q    Type
REMARK                         _______ _______ _______ _____ _____    ______ ____
ROOT
ATOM      1  NE  ARG A   1      22.834  22.409  15.090  0.00  0.00    -0.265 N 
ATOM      2  HE  ARG A   1      23.065  22.829  16.013  0.00  0.00    +0.259 HD
ATOM      3  CZ  ARG A   1      21.917  22.998  14.333  0.00  0.00    +0.342 C 
ATOM      4  NH2 ARG A   1      21.297  24.106  14.728  0.00  0.00    -0.292 N 
ATOM      5 HH21 ARG A   1      21.527  24.530  15.649  0.00  0.00    +0.255 HD
ATOM      6 HH22 ARG A   1      20.582  24.548  14.116  0.00  0.00    +0.255 HD
ATOM      7  NH1 ARG A   1      21.568  22.505  13.140  0.00  0.00    -0.292 N 
ATOM      8 HH11 ARG A   1      22.019  21.638  12.784  0.00  0.00    +0.255 HD
ATOM      9 HH12 ARG A   1      20.846  22.988  12.569  0.00  0.00    +0.255 HD
ENDROOT
BRANCH   1  10
ATOM     10  CD  ARG A   1      23.536  21.185  14.675  0.00  0.00    +0.174 C 
BRANCH  10  11
ATOM     11  CG  ARG A   1      24.263  20.517  15.830  0.00  0.00    +0.045 C 
BRANCH  11  12
ATOM     12  CB  ARG A   1      24.848  19.165  15.482  0.00  0.00    +0.029 C 
BRANCH  12  13
ATOM     13  CA  ARG A   1      25.433  18.351  16.633  0.00  0.00    +0.133 C 
BRANCH  13  14
ATOM     14  N   ARG A   1      26.648  18.988  17.149  0.00  0.00    -0.239 NA
ATOM     15  H   ARG A   1      26.994  19.872  16.724  0.00  0.00    +0.142 HD
ENDBRANCH  13  14
BRANCH  13  16
ATOM     16  C   ARG A   1      25.761  16.945  16.157  0.00  0.00    +0.224 C 
ATOM     17  O   ARG A   1      26.750  16.805  15.441  0.00  0.00    -0.287 OA
ENDBRANCH  13  16
ENDBRANCH  12  13
ENDBRANCH  11  12
ENDBRANCH  10  11
ENDBRANCH   1  10
TORSDOF 6
REMARK  Name = ../refined-set-2016/3vfb/3vfb_pocket.pdb
REMARK  234 active torsions:
REMARK  status: ('A' for Active; 'I' for Inactive)
REMARK    1  A    between atoms: _1  and  _3
REMARK    2  A    between atoms: _3  and  _4
REMARK    3  A    between atoms: _3  and  _6
REMARK    4  A    between atoms: _6  and  _7
REMARK    5  A    between atoms: _7  and  _8
REMARK    6  A    between atoms: _8  and  _9
REMARK    7  A    between atoms: _18  and  _20
REMARK    8  A    between atoms: _20  and  _21
REMARK    9  A    between atoms: _20  and  _23
REMARK   10  A    between atoms: _23  and  _24
REMARK   11  A    between atoms: _27  and  _29
REMARK   12  A    between atoms: _29  and  _30
REMARK   13  A    between atoms: _29  and  _32
REMARK   14  A    between atoms: _32  and  _33
REMARK   15  A    between atoms: _36  and  _38
REMARK   16  A    between atoms: _38  and  _39
REMARK   17  A    between atoms: _38  and  _41
REMARK   18  A    between atoms: _41  and  _42
REMARK   19  A    between atoms: _45  and  _47
REMARK   20  A    between atoms: _47  and  _48
REMARK   21  A    between atoms: _47  and  _50
REMARK   22  A    between atoms: _50  and  _51
REMARK   23  A    between atoms: _54  and  _56
REMARK   24  A    between atoms: _56  and  _57
REMARK   25  A    between atoms: _56  and  _59
REMARK   26  A    between atoms: _59  and  _60
REMARK   27  A    between atoms: _63  and  _65
REMARK   28  A    between atoms: _65  and  _66
REMARK   29  A    between atoms: _68  and  _70
REMARK   30  A    between atoms: _70  and  _71
REMARK   31  A    between atoms: _74  and  _76
REMARK   32  A    between atoms: _76  and  _77
REMARK   33  A    between atoms: _76  and  _79
REMARK   34  A    between atoms: _79  and  _80
REMARK   35  A    between atoms: _83  and  _85
REMARK   36  A    between atoms: _85  and  _86
REMARK   37  A    between atoms: _85  and  _88
REMARK   38  A    between atoms: _88  and  _89
REMARK   39  A    between atoms: _92  and  _94
REMARK   40  A    between atoms: _94  and  _95
REMARK   41  A    between atoms: _94  and  _97
REMARK   42  A    between atoms: _97  and  _98
REMARK   43  A    between atoms: _101  and  _103
REMARK   44  A    between atoms: _103  and  _104
REMARK   45  A    between atoms: _103  and  _106
REMARK   46  A    between atoms: _109  and  _111
REMARK   47  A    between atoms: _111  and  _112
REMARK   48  A    between atoms: _111  and  _114
REMARK   49  A    between atoms: _114  and  _115
REMARK   50  A    between atoms: _115  and  _116
REMARK   51  A    between atoms: _116  and  _117
REMARK   52  A    between atoms: _117  and  _118
REMARK   53  A    between atoms: _122  and  _124
REMARK   54  A    between atoms: _124  and  _125
REMARK   55  A    between atoms: _124  and  _127
REMARK   56  A    between atoms: _127  and  _128
REMARK   57  A    between atoms: _128  and  _129
REMARK   58  A    between atoms: _131  and  _133
REMARK   59  A    between atoms: _133  and  _134
REMARK   60  A    between atoms: _133  and  _136
REMARK   61  A    between atoms: _136  and  _137
REMARK   62  A    between atoms: _140  and  _142
REMARK   63  A    between atoms: _142  and  _143
REMARK   64  A    between atoms: _145  and  _147
REMARK   65  A    between atoms: _147  and  _148
REMARK   66  A    between atoms: _150  and  _152
REMARK   67  A    between atoms: _152  and  _153
REMARK   68  A    between atoms: _152  and  _155
REMARK   69  A    between atoms: _155  and  _156
REMARK   70  A    between atoms: _159  and  _161
REMARK   71  A    between atoms: _161  and  _162
REMARK   72  A    between atoms: _164  and  _166
REMARK   73  A    between atoms: _166  and  _167
REMARK   74  A    between atoms: _169  and  _171
REMARK   75  A    between atoms: _171  and  _172
REMARK   76  A    between atoms: _171  and  _174
REMARK   77  A    between atoms: _174  and  _175
REMARK   78  A    between atoms: _181  and  _183
REMARK   79  A    between atoms: _183  and  _184
REMARK   80  A    between atoms: _183  and  _186
REMARK   81  A    between atoms: _186  and  _187
REMARK   82  A    between atoms: _190  and  _192
REMARK   83  A    between atoms: _192  and  _193
REMARK   84  A    between atoms: _192  and  _195
REMARK   85  A    between atoms: _195  and  _196
REMARK   86  A    between atoms: _199  and  _201
REMARK   87  A    between atoms: _201  and  _202
REMARK   88  A    between atoms: _201  and  _204
REMARK   89  A    between atoms: _204  and  _205
REMARK   90  A    between atoms: _209  and  _210
REMARK   91  A    between atoms: _215  and  _217
REMARK   92  A    between atoms: _217  and  _218
REMARK   93  A    between atoms: _217  and  _220
REMARK   94  A    between atoms: _223  and  _225
REMARK   95  A    between atoms: _225  and  _226
REMARK   96  A    between atoms: _225  and  _228
REMARK   97  A    between atoms: _228  and  _229
REMARK   98  A    between atoms: _234  and  _236
REMARK   99  A    between atoms: _236  and  _237
REMARK  100  A    between atoms: _236  and  _239
REMARK  101  A    between atoms: _239  and  _240
REMARK  102  A    between atoms: _243  and  _245
REMARK  103  A    between atoms: _245  and  _246
REMARK  104  A    between atoms: _245  and  _248
REMARK  105  A    between atoms: _248  and  _249
REMARK  106  A    between atoms: _252  and  _254
REMARK  107  A    between atoms: _254  and  _255
REMARK  108  A    between atoms: _257  and  _259
REMARK  109  A    between atoms: _259  and  _260
REMARK  110  A    between atoms: _259  and  _262
REMARK  111  A    between atoms: _262  and  _263
REMARK  112  A    between atoms: _263  and  _264
REMARK  113  A    between atoms: _264  and  _265
REMARK  114  A    between atoms: _274  and  _276
REMARK  115  A    between atoms: _276  and  _277
REMARK  116  A    between atoms: _276  and  _279
REMARK  117  A    between atoms: _279  and  _280
REMARK  118  A    between atoms: _283  and  _285
REMARK  119  A    between atoms: _285  and  _286
REMARK  120  A    between atoms: _285  and  _288
REMARK  121  A    between atoms: _288  and  _289
REMARK  122  A    between atoms: _289  and  _290
REMARK  123  A    between atoms: _290  and  _291
REMARK  124  A    between atoms: _300  and  _302
REMARK  125  A    between atoms: _302  and  _303
REMARK  126  A    between atoms: _302  and  _305
REMARK  127  A    between atoms: _305  and  _306
REMARK  128  A    between atoms: _309  and  _311
REMARK  129  A    between atoms: _311  and  _312
REMARK  130  A    between atoms: _311  and  _314
REMARK  131  A    between atoms: _314  and  _315
REMARK  132  A    between atoms: _318  and  _320
REMARK  133  A    between atoms: _320  and  _321
REMARK  134  A    between atoms: _320  and  _323
REMARK  135  A    between atoms: _323  and  _324
REMARK  136  A    between atoms: _327  and  _329
REMARK  137  A    between atoms: _329  and  _330
REMARK  138  A    between atoms: _329  and  _332
REMARK  139  A    between atoms: _332  and  _333
REMARK  140  A    between atoms: _336  and  _338
REMARK  141  A    between atoms: _338  and  _339
REMARK  142  A    between atoms: _341  and  _343
REMARK  143  A    between atoms: _343  and  _344
REMARK  144  A    between atoms: _347  and  _349
REMARK  145  A    between atoms: _349  and  _350
REMARK  146  A    between atoms: _349  and  _352
REMARK  147  A    between atoms: _352  and  _353
REMARK  148  A    between atoms: _356  and  _358
REMARK  149  A    between atoms: _358  and  _359
REMARK  150  A    between atoms: _358  and  _361
REMARK  151  A    between atoms: _361  and  _362
REMARK  152  A    between atoms: _365  and  _367
REMARK  153  A    between atoms: _367  and  _368
REMARK  154  A    between atoms: _367  and  _370
REMARK  155  A    between atoms: _370  and  _371
REMARK  156  A    between atoms: _374  and  _376
REMARK  157  A    between atoms: _376  and  _377
REMARK  158  A    between atoms: _376  and  _379
REMARK  159  A    between atoms: _382  and  _384
REMARK  160  A    between atoms: _384  and  _385
REMARK  161  A    between atoms: _384  and  _387
REMARK  162  A    between atoms: _387  and  _388
REMARK  163  A    between atoms: _388  and  _389
REMARK  164  A    between atoms: _389  and  _390
REMARK  165  A    between atoms: _390  and  _391
REMARK  166  A    between atoms: _395  and  _397
REMARK  167  A    between atoms: _397  and  _398
REMARK  168  A    between atoms: _397  and  _400
REMARK  169  A    between atoms: _400  and  _401
REMARK  170  A    between atoms: _401  and  _402
REMARK  171  A    between atoms: _404  and  _406
REMARK  172  A    between atoms: _406  and  _407
REMARK  173  A    between atoms: _406  and  _409
REMARK  174  A    between atoms: _409  and  _410
REMARK  175  A    between atoms: _413  and  _415
REMARK  176  A    between atoms: _415  and  _416
REMARK  177  A    between atoms: _418  and  _420
REMARK  178  A    between atoms: _420  and  _421
REMARK  179  A    between atoms: _423  and  _425
REMARK  180  A    between atoms: _425  and  _426
REMARK  181  A    between atoms: _425  and  _428
REMARK  182  A    between atoms: _428  and  _429
REMARK  183  A    between atoms: _432  and  _434
REMARK  184  A    between atoms: _434  and  _435
REMARK  185  A    between atoms: _437  and  _439
REMARK  186  A    between atoms: _439  and  _440
REMARK  187  A    between atoms: _442  and  _444
REMARK  188  A    between atoms: _444  and  _445
REMARK  189  A    between atoms: _444  and  _447
REMARK  190  A    between atoms: _447  and  _448
REMARK  191  A    between atoms: _454  and  _456
REMARK  192  A    between atoms: _456  and  _457
REMARK  193  A    between atoms: _456  and  _459
REMARK  194  A    between atoms: _459  and  _460
REMARK  195  A    between atoms: _463  and  _465
REMARK  196  A    between atoms: _465  and  _466
REMARK  197  A    between atoms: _465  and  _468
REMARK  198  A    between atoms: _471  and  _473
REMARK  199  A    between atoms: _473  and  _474
REMARK  200  A    between atoms: _473  and  _476
REMARK  201  A    between atoms: _476  and  _477
REMARK  202  A    between atoms: _481  and  _482
REMARK  203  A    between atoms: _487  and  _489
REMARK  204  A    between atoms: _489  and  _490
REMARK  205  A    between atoms: _489  and  _492
REMARK  206  A    between atoms: _492  and  _493
REMARK  207  A    between atoms: _497  and  _498
REMARK  208  A    between atoms: _503  and  _505
REMARK  209  A    between atoms: _505  and  _506
REMARK  210  A    between atoms: _505  and  _508
REMARK  211  A    between atoms: _511  and  _513
REMARK  212  A    between atoms: _513  and  _514
REMARK  213  A    between atoms: _513  and  _516
REMARK  214  A    between atoms: _516  and  _517
REMARK  215  A    between atoms: _522  and  _524
REMARK  216  A    between atoms: _524  and  _525
REMARK  217  A    between atoms: _524  and  _527
REMARK  218  A    between atoms: _527  and  _528
REMARK  219  A    between atoms: _531  and  _533
REMARK  220  A    between atoms: _533  and  _534
REMARK  221  A    between atoms: _533  and  _536
REMARK  222  A    between atoms: _536  and  _537
REMARK  223  A    between atoms: _540  and  _542
REMARK  224  A    between atoms: _542  and  _543
REMARK  225  A    between atoms: _545  and  _547
REMARK  226  A    between atoms: _547  and  _548
REMARK  227  A    between atoms: _547  and  _550
REMARK  228  A    between atoms: _550  and  _551
REMARK  229  A    between atoms: _551  and  _552
REMARK  230  A    between atoms: _552  and  _553
REMARK  231  A    between atoms: _562  and  _564
REMARK  232  A    between atoms: _564  and  _565
REMARK  233  A    between atoms: _564  and  _567
REMARK  234  A    between atoms: _567  and  _568
REMARK                            x       y       z     vdW  Elec       q    Type
REMARK                         _______ _______ _______ _____ _____    ______ ____
ROOT
ATOM      1  C   GLY A   5      12.487  14.825  19.640  0.00  0.00    +0.243 C 
ATOM      2  O   GLY A   5      11.488  15.518  19.779  0.00  0.00    -0.273 OA
ATOM      3  N   ALA A   6      12.715  14.083  18.571  0.00  0.00    -0.297 N 
ATOM      4  H   ALA A   6      13.596  13.530  18.549  0.00  0.00    +0.150 HD
ENDROOT
BRANCH   3   5
ATOM      5  CA  ALA A   6      11.829  13.980  17.423  0.00  0.00    +0.149 C 
ATOM      6  CB  ALA A   6      12.622  14.111  16.130  0.00  0.00    +0.031 C 
BRANCH   5   7
ATOM      7  C   ALA A   6      11.115  12.634  17.416  0.00  0.00    +0.241 C 
ATOM      8  O   ALA A   6      11.755  11.567  17.440  0.00  0.00    -0.273 OA
ATOM      9  N   ASP A   7       9.773  12.667  17.356  0.00  0.00    -0.297 N 
ATOM     10  H   ASP A   7       9.262  13.573  17.357  0.00  0.00    +0.150 HD
BRANCH   9  11
ATOM     11  CA  ASP A   7       9.050  11.402  17.290  0.00  0.00    +0.160 C 
BRANCH  11  12
ATOM     12  C   ASP A   7       9.346  10.644  15.990  0.00  0.00    +0.241 C 
ATOM     13  O   ASP A   7       9.527   9.410  15.970  0.00  0.00    -0.273 OA
ATOM     14  N   ASP A   8       9.354  11.364  14.890  0.00  0.00    -0.297 N 
ATOM     15  H   ASP A   8       9.249  12.394  14.990  0.00  0.00    +0.150 HD
BRANCH  14  16
ATOM     16  CA  ASP A   8       9.497  10.835  13.555  0.00  0.00    +0.160 C 
BRANCH  16  17
ATOM     17  C   ASP A   8      10.702  11.446  12.835  0.00  0.00    +0.241 C 
ATOM     18  O   ASP A   8      11.181  12.505  13.259  0.00  0.00    -0.273 OA
ATOM     19  N   THR A   9      11.115  10.757  11.773  0.00  0.00    -0.295 N 
ATOM     20  H   THR A   9      10.683   9.826  11.602  0.00  0.00    +0.150 HD
BRANCH  19  21
ATOM     21  CA  THR A   9      12.128  11.215  10.835  0.00  0.00    +0.176 C 
BRANCH  21  22
ATOM     22  C   THR A   9      11.519  12.244   9.882  0.00  0.00    +0.243 C 
ATOM     23  N   VAL A  10      12.193  13.376   9.663  0.00  0.00    -0.298 N 
ATOM     24  H   VAL A  10      13.121  13.480  10.121  0.00  0.00    +0.150 HD
ATOM     25  O   THR A   9      10.434  12.022   9.339  0.00  0.00    -0.273 OA
BRANCH  23  26
ATOM     26  CA  VAL A  10      11.724  14.479   8.828  0.00  0.00    +0.137 C 
BRANCH  26  27
ATOM     27  CB  VAL A  10      11.261  15.714   9.629  0.00  0.00    +0.026 C 
ATOM     28  CG2 VAL A  10      10.435  15.349  10.862  0.00  0.00    +0.002 C 
ATOM     29  CG1 VAL A  10      10.489  16.649   8.705  0.00  0.00    +0.002 C 
ENDBRANCH  26  27
BRANCH  26  30
ATOM     30  C   VAL A  10      12.869  14.862   7.901  0.00  0.00    +0.227 C 
ATOM     31  O   VAL A  10      13.975  15.187   8.346  0.00  0.00    -0.286 OA
ENDBRANCH  26  30
ENDBRANCH  23  26
ENDBRANCH  21  22
BRANCH  21  32
ATOM     32  CB  THR A   9      12.705   9.975  10.143  0.00  0.00    +0.137 C 
ATOM     33  CG2 THR A   9      13.642  10.347   9.006  0.00  0.00    +0.034 C 
BRANCH  32  34
ATOM     34  OG1 THR A   9      13.395   9.225  11.168  0.00  0.00    -0.382 OA
ATOM     35  HG1 THR A   9      12.753   8.971  11.878  0.00  0.00    +0.210 HD
ENDBRANCH  32  34
ENDBRANCH  21  32
ENDBRANCH  19  21
ENDBRANCH  16  17
BRANCH  16  36
ATOM     36  CB  ASP A   8       8.236  11.160  12.764  0.00  0.00    +0.143 C 
BRANCH  36  37
ATOM     37  CG  ASP A   8       7.072  10.245  13.069  0.00  0.00    +0.367 C 
ATOM     38  OD2 ASP A   8       5.993  10.797  13.356  0.00  0.00    -0.246 OA
ATOM     39  OD1 ASP A   8       7.233   9.001  13.008  0.00  0.00    -0.246 OA
ENDBRANCH  36  37
ENDBRANCH  16  36
ENDBRANCH  14  16
ENDBRANCH  11  12
BRANCH  11  40
ATOM     40  CB  ASP A   7       7.558  11.604  17.447  0.00  0.00    +0.143 C 
BRANCH  40  41
ATOM     41  CG  ASP A   7       7.074  12.177  18.772  0.00  0.00    +0.367 C 
ATOM     42  OD2 ASP A   7       7.747  12.023  19.816  0.00  0.00    -0.246 OA
ATOM     43  OD1 ASP A   7       5.971  12.807  18.748  0.00  0.00    -0.246 OA
ENDBRANCH  40  41
ENDBRANCH  11  40
ENDBRANCH   9  11
ENDBRANCH   5   7
ENDBRANCH   3   5
BRANCH   1  44
ATOM     44  CA  GLY A   5      13.517  14.822  20.755  0.00  0.00    +0.176 C 
BRANCH  44  47
ATOM     45  C   THR A   4      14.671  12.684  20.816  0.00  0.00    +0.243 C 
ATOM     46  O   THR A   4      13.718  12.109  21.352  0.00  0.00    -0.273 OA
ATOM     47  N   GLY A   5      14.660  13.971  20.512  0.00  0.00    -0.295 N 
ATOM     48  H   GLY A   5      15.509  14.388  20.080  0.00  0.00    +0.150 HD
BRANCH  45  49
ATOM     49  CA  THR A   4      15.964  11.944  20.492  0.00  0.00    +0.176 C 
BRANCH  49  51
ATOM     50  C   ASP A   3      16.412  12.774  18.255  0.00  0.00    +0.241 C 
ATOM     51  N   THR A   4      16.797  12.607  19.521  0.00  0.00    -0.295 N 
ATOM     52  H   THR A   4      17.727  12.966  19.816  0.00  0.00    +0.150 HD
ATOM     53  O   ASP A   3      15.322  12.362  17.864  0.00  0.00    -0.273 OA
BRANCH  50  54
ATOM     54  CA  ASP A   3      17.408  13.502  17.351  0.00  0.00    +0.160 C 
BRANCH  54  57
ATOM     55  C   LEU A   2      19.519  12.687  16.502  0.00  0.00    +0.241 C 
ATOM     56  O   LEU A   2      20.185  13.281  17.358  0.00  0.00    -0.273 OA
ATOM     57  N   ASP A   3      18.194  12.622  16.500  0.00  0.00    -0.297 N 
ATOM     58  H   ASP A   3      17.713  11.936  15.884  0.00  0.00    +0.150 HD
BRANCH  55  59
ATOM     59  CA  LEU A   2      20.251  12.012  15.361  0.00  0.00    +0.149 C 
BRANCH  59  61
ATOM     60  C   LEU A   1      20.018  13.706  13.631  0.00  0.00    +0.238 C 
ATOM     61  N   LEU A   2      20.792  13.064  14.501  0.00  0.00    -0.297 N 
ATOM     62  H   LEU A   2      21.799  13.314  14.571  0.00  0.00    +0.150 HD
ATOM     63  O   LEU A   1      18.849  13.394  13.422  0.00  0.00    -0.274 OA
BRANCH  60  64
ATOM     64  CA  LEU A   1      20.661  14.874  12.892  0.00  0.00    +0.145 C 
BRANCH  64  65
ATOM     65  N   LEU A   1      20.493  14.767  11.453  0.00  0.00    -0.238 NA
ATOM     66  H   LEU A   1      19.650  15.207  11.032  0.00  0.00    +0.142 HD
ENDBRANCH  64  65
BRANCH  64  67
ATOM     67  CB  LEU A   1      20.005  16.173  13.298  0.00  0.00    +0.026 C 
BRANCH  67  68
ATOM     68  CG  LEU A   1      20.299  16.873  14.599  0.00  0.00    +0.002 C 
ATOM     69  CD2 LEU A   1      21.749  17.239  14.701  0.00  0.00    +0.000 C 
ATOM     70  CD1 LEU A   1      19.398  18.106  14.690  0.00  0.00    +0.000 C 
ENDBRANCH  67  68
ENDBRANCH  64  67
ENDBRANCH  60  64
ENDBRANCH  59  61
BRANCH  59  71
ATOM     71  CB  LEU A   2      21.335  11.070  15.895  0.00  0.00    +0.029 C 
BRANCH  71  72
ATOM     72  CG  LEU A   2      22.182  10.312  14.874  0.00  0.00    +0.002 C 
ATOM     73  CD2 LEU A   2      23.238   9.476  15.587  0.00  0.00    +0.000 C 
ATOM     74  CD1 LEU A   2      21.343   9.449  13.933  0.00  0.00    +0.000 C 
ENDBRANCH  71  72
ENDBRANCH  59  71
ENDBRANCH  55  59
ENDBRANCH  54  57
BRANCH  54  75
ATOM     75  CB  ASP A   3      16.654  14.469  16.445  0.00  0.00    +0.143 C 
BRANCH  75  76
ATOM     76  CG  ASP A   3      15.998  15.585  17.209  0.00  0.00    +0.367 C 
ATOM     77  OD2 ASP A   3      15.993  15.543  18.460  0.00  0.00    -0.246 OA
ATOM     78  OD1 ASP A   3      15.479  16.504  16.553  0.00  0.00    -0.246 OA
ENDBRANCH  75  76
ENDBRANCH  54  75
ENDBRANCH  50  54
ENDBRANCH  49  51
BRANCH  49  79
ATOM     79  CB  THR A   4      16.750  11.676  21.793  0.00  0.00    +0.137 C 
ATOM     80  CG2 THR A   4      17.984  10.840  21.490  0.00  0.00    +0.034 C 
BRANCH  79  81
ATOM     81  OG1 THR A   4      17.209  12.905  22.365  0.00  0.00    -0.382 OA
ATOM     82  HG1 THR A   4      16.432  13.482  22.572  0.00  0.00    +0.210 HD
ENDBRANCH  79  81
ENDBRANCH  49  79
ENDBRANCH  45  49
ENDBRANCH  44  47
ENDBRANCH   1  44
TORSDOF 35
REMARK  Name = ../refined-set-2016/3vfb/3vfb_pocket.pdb
REMARK  234 active torsions:
REMARK  status: ('A' for Active; 'I' for Inactive)
REMARK    1  A    between atoms: _1  and  _3
REMARK    2  A    between atoms: _3  and  _4
REMARK    3  A    between atoms: _3  and  _6
REMARK    4  A    between atoms: _6  and  _7
REMARK    5  A    between atoms: _7  and  _8
REMARK    6  A    between atoms: _8  and  _9
REMARK    7  A    between atoms: _18  and  _20
REMARK    8  A    between atoms: _20  and  _21
REMARK    9  A    between atoms: _20  and  _23
REMARK   10  A    between atoms: _23  and  _24
REMARK   11  A    between atoms: _27  and  _29
REMARK   12  A    between atoms: _29  and  _30
REMARK   13  A    between atoms: _29  and  _32
REMARK   14  A    between atoms: _32  and  _33
REMARK   15  A    between atoms: _36  and  _38
REMARK   16  A    between atoms: _38  and  _39
REMARK   17  A    between atoms: _38  and  _41
REMARK   18  A    between atoms: _41  and  _42
REMARK   19  A    between atoms: _45  and  _47
REMARK   20  A    between atoms: _47  and  _48
REMARK   21  A    between atoms: _47  and  _50
REMARK   22  A    between atoms: _50  and  _51
REMARK   23  A    between atoms: _54  and  _56
REMARK   24  A    between atoms: _56  and  _57
REMARK   25  A    between atoms: _56  and  _59
REMARK   26  A    between atoms: _59  and  _60
REMARK   27  A    between atoms: _63  and  _65
REMARK   28  A    between atoms: _65  and  _66
REMARK   29  A    between atoms: _68  and  _70
REMARK   30  A    between atoms: _70  and  _71
REMARK   31  A    between atoms: _74  and  _76
REMARK   32  A    between atoms: _76  and  _77
REMARK   33  A    between atoms: _76  and  _79
REMARK   34  A    between atoms: _79  and  _80
REMARK   35  A    between atoms: _83  and  _85
REMARK   36  A    between atoms: _85  and  _86
REMARK   37  A    between atoms: _85  and  _88
REMARK   38  A    between atoms: _88  and  _89
REMARK   39  A    between atoms: _92  and  _94
REMARK   40  A    between atoms: _94  and  _95
REMARK   41  A    between atoms: _94  and  _97
REMARK   42  A    between atoms: _97  and  _98
REMARK   43  A    between atoms: _101  and  _103
REMARK   44  A    between atoms: _103  and  _104
REMARK   45  A    between atoms: _103  and  _106
REMARK   46  A    between atoms: _109  and  _111
REMARK   47  A    between atoms: _111  and  _112
REMARK   48  A    between atoms: _111  and  _114
REMARK   49  A    between atoms: _114  and  _115
REMARK   50  A    between atoms: _115  and  _116
REMARK   51  A    between atoms: _116  and  _117
REMARK   52  A    between atoms: _117  and  _118
REMARK   53  A    between atoms: _122  and  _124
REMARK   54  A    between atoms: _124  and  _125
REMARK   55  A    between atoms: _124  and  _127
REMARK   56  A    between atoms: _127  and  _128
REMARK   57  A    between atoms: _128  and  _129
REMARK   58  A    between atoms: _131  and  _133
REMARK   59  A    between atoms: _133  and  _134
REMARK   60  A    between atoms: _133  and  _136
REMARK   61  A    between atoms: _136  and  _137
REMARK   62  A    between atoms: _140  and  _142
REMARK   63  A    between atoms: _142  and  _143
REMARK   64  A    between atoms: _145  and  _147
REMARK   65  A    between atoms: _147  and  _148
REMARK   66  A    between atoms: _150  and  _152
REMARK   67  A    between atoms: _152  and  _153
REMARK   68  A    between atoms: _152  and  _155
REMARK   69  A    between atoms: _155  and  _156
REMARK   70  A    between atoms: _159  and  _161
REMARK   71  A    between atoms: _161  and  _162
REMARK   72  A    between atoms: _164  and  _166
REMARK   73  A    between atoms: _166  and  _167
REMARK   74  A    between atoms: _169  and  _171
REMARK   75  A    between atoms: _171  and  _172
REMARK   76  A    between atoms: _171  and  _174
REMARK   77  A    between atoms: _174  and  _175
REMARK   78  A    between atoms: _181  and  _183
REMARK   79  A    between atoms: _183  and  _184
REMARK   80  A    between atoms: _183  and  _186
REMARK   81  A    between atoms: _186  and  _187
REMARK   82  A    between atoms: _190  and  _192
REMARK   83  A    between atoms: _192  and  _193
REMARK   84  A    between atoms: _192  and  _195
REMARK   85  A    between atoms: _195  and  _196
REMARK   86  A    between atoms: _199  and  _201
REMARK   87  A    between atoms: _201  and  _202
REMARK   88  A    between atoms: _201  and  _204
REMARK   89  A    between atoms: _204  and  _205
REMARK   90  A    between atoms: _209  and  _210
REMARK   91  A    between atoms: _215  and  _217
REMARK   92  A    between atoms: _217  and  _218
REMARK   93  A    between atoms: _217  and  _220
REMARK   94  A    between atoms: _223  and  _225
REMARK   95  A    between atoms: _225  and  _226
REMARK   96  A    between atoms: _225  and  _228
REMARK   97  A    between atoms: _228  and  _229
REMARK   98  A    between atoms: _234  and  _236
REMARK   99  A    between atoms: _236  and  _237
REMARK  100  A    between atoms: _236  and  _239
REMARK  101  A    between atoms: _239  and  _240
REMARK  102  A    between atoms: _243  and  _245
REMARK  103  A    between atoms: _245  and  _246
REMARK  104  A    between atoms: _245  and  _248
REMARK  105  A    between atoms: _248  and  _249
REMARK  106  A    between atoms: _252  and  _254
REMARK  107  A    between atoms: _254  and  _255
REMARK  108  A    between atoms: _257  and  _259
REMARK  109  A    between atoms: _259  and  _260
REMARK  110  A    between atoms: _259  and  _262
REMARK  111  A    between atoms: _262  and  _263
REMARK  112  A    between atoms: _263  and  _264
REMARK  113  A    between atoms: _264  and  _265
REMARK  114  A    between atoms: _274  and  _276
REMARK  115  A    between atoms: _276  and  _277
REMARK  116  A    between atoms: _276  and  _279
REMARK  117  A    between atoms: _279  and  _280
REMARK  118  A    between atoms: _283  and  _285
REMARK  119  A    between atoms: _285  and  _286
REMARK  120  A    between atoms: _285  and  _288
REMARK  121  A    between atoms: _288  and  _289
REMARK  122  A    between atoms: _289  and  _290
REMARK  123  A    between atoms: _290  and  _291
REMARK  124  A    between atoms: _300  and  _302
REMARK  125  A    between atoms: _302  and  _303
REMARK  126  A    between atoms: _302  and  _305
REMARK  127  A    between atoms: _305  and  _306
REMARK  128  A    between atoms: _309  and  _311
REMARK  129  A    between atoms: _311  and  _312
REMARK  130  A    between atoms: _311  and  _314
REMARK  131  A    between atoms: _314  and  _315
REMARK  132  A    between atoms: _318  and  _320
REMARK  133  A    between atoms: _320  and  _321
REMARK  134  A    between atoms: _320  and  _323
REMARK  135  A    between atoms: _323  and  _324
REMARK  136  A    between atoms: _327  and  _329
REMARK  137  A    between atoms: _329  and  _330
REMARK  138  A    between atoms: _329  and  _332
REMARK  139  A    between atoms: _332  and  _333
REMARK  140  A    between atoms: _336  and  _338
REMARK  141  A    between atoms: _338  and  _339
REMARK  142  A    between atoms: _341  and  _343
REMARK  143  A    between atoms: _343  and  _344
REMARK  144  A    between atoms: _347  and  _349
REMARK  145  A    between atoms: _349  and  _350
REMARK  146  A    between atoms: _349  and  _352
REMARK  147  A    between atoms: _352  and  _353
REMARK  148  A    between atoms: _356  and  _358
REMARK  149  A    between atoms: _358  and  _359
REMARK  150  A    between atoms: _358  and  _361
REMARK  151  A    between atoms: _361  and  _362
REMARK  152  A    between atoms: _365  and  _367
REMARK  153  A    between atoms: _367  and  _368
REMARK  154  A    between atoms: _367  and  _370
REMARK  155  A    between atoms: _370  and  _371
REMARK  156  A    between atoms: _374  and  _376
REMARK  157  A    between atoms: _376  and  _377
REMARK  158  A    between atoms: _376  and  _379
REMARK  159  A    between atoms: _382  and  _384
REMARK  160  A    between atoms: _384  and  _385
REMARK  161  A    between atoms: _384  and  _387
REMARK  162  A    between atoms: _387  and  _388
REMARK  163  A    between atoms: _388  and  _389
REMARK  164  A    between atoms: _389  and  _390
REMARK  165  A    between atoms: _390  and  _391
REMARK  166  A    between atoms: _395  and  _397
REMARK  167  A    between atoms: _397  and  _398
REMARK  168  A    between atoms: _397  and  _400
REMARK  169  A    between atoms: _400  and  _401
REMARK  170  A    between atoms: _401  and  _402
REMARK  171  A    between atoms: _404  and  _406
REMARK  172  A    between atoms: _406  and  _407
REMARK  173  A    between atoms: _406  and  _409
REMARK  174  A    between atoms: _409  and  _410
REMARK  175  A    between atoms: _413  and  _415
REMARK  176  A    between atoms: _415  and  _416
REMARK  177  A    between atoms: _418  and  _420
REMARK  178  A    between atoms: _420  and  _421
REMARK  179  A    between atoms: _423  and  _425
REMARK  180  A    between atoms: _425  and  _426
REMARK  181  A    between atoms: _425  and  _428
REMARK  182  A    between atoms: _428  and  _429
REMARK  183  A    between atoms: _432  and  _434
REMARK  184  A    between atoms: _434  and  _435
REMARK  185  A    between atoms: _437  and  _439
REMARK  186  A    between atoms: _439  and  _440
REMARK  187  A    between atoms: _442  and  _444
REMARK  188  A    between atoms: _444  and  _445
REMARK  189  A    between atoms: _444  and  _447
REMARK  190  A    between atoms: _447  and  _448
REMARK  191  A    between atoms: _454  and  _456
REMARK  192  A    between atoms: _456  and  _457
REMARK  193  A    between atoms: _456  and  _459
REMARK  194  A    between atoms: _459  and  _460
REMARK  195  A    between atoms: _463  and  _465
REMARK  196  A    between atoms: _465  and  _466
REMARK  197  A    between atoms: _465  and  _468
REMARK  198  A    between atoms: _471  and  _473
REMARK  199  A    between atoms: _473  and  _474
REMARK  200  A    between atoms: _473  and  _476
REMARK  201  A    between atoms: _476  and  _477
REMARK  202  A    between atoms: _481  and  _482
REMARK  203  A    between atoms: _487  and  _489
REMARK  204  A    between atoms: _489  and  _490
REMARK  205  A    between atoms: _489  and  _492
REMARK  206  A    between atoms: _492  and  _493
REMARK  207  A    between atoms: _497  and  _498
REMARK  208  A    between atoms: _503  and  _505
REMARK  209  A    between atoms: _505  and  _506
REMARK  210  A    between atoms: _505  and  _508
REMARK  211  A    between atoms: _511  and  _513
REMARK  212  A    between atoms: _513  and  _514
REMARK  213  A    between atoms: _513  and  _516
REMARK  214  A    between atoms: _516  and  _517
REMARK  215  A    between atoms: _522  and  _524
REMARK  216  A    between atoms: _524  and  _525
REMARK  217  A    between atoms: _524  and  _527
REMARK  218  A    between atoms: _527  and  _528
REMARK  219  A    between atoms: _531  and  _533
REMARK  220  A    between atoms: _533  and  _534
REMARK  221  A    between atoms: _533  and  _536
REMARK  222  A    between atoms: _536  and  _537
REMARK  223  A    between atoms: _540  and  _542
REMARK  224  A    between atoms: _542  and  _543
REMARK  225  A    between atoms: _545  and  _547
REMARK  226  A    between atoms: _547  and  _548
REMARK  227  A    between atoms: _547  and  _550
REMARK  228  A    between atoms: _550  and  _551
REMARK  229  A    between atoms: _551  and  _552
REMARK  230  A    between atoms: _552  and  _553
REMARK  231  A    between atoms: _562  and  _564
REMARK  232  A    between atoms: _564  and  _565
REMARK  233  A    between atoms: _564  and  _567
REMARK  234  A    between atoms: _567  and  _568
REMARK                            x       y       z     vdW  Elec       q    Type
REMARK                         _______ _______ _______ _____ _____    ______ ____
ROOT
ATOM      1  C   GLY A   5       7.725  23.786  17.674  0.00  0.00    +0.243 C 
ATOM      2  N   ILE A   6       8.982  24.103  17.985  0.00  0.00    -0.297 N 
ATOM      3  H   ILE A   6       9.739  23.393  18.048  0.00  0.00    +0.150 HD
ATOM      4  O   GLY A   5       6.771  24.553  17.589  0.00  0.00    -0.273 OA
ENDROOT
BRANCH   1   5
ATOM      5  CA  GLY A   5       7.503  22.296  17.431  0.00  0.00    +0.176 C 
BRANCH   5   8
ATOM      6  C   GLY A   4       5.847  20.992  16.208  0.00  0.00    +0.243 C 
ATOM      7  O   GLY A   4       6.220  19.954  16.745  0.00  0.00    -0.273 OA
ATOM      8  N   GLY A   5       6.450  22.133  16.478  0.00  0.00    -0.295 N 
ATOM      9  H   GLY A   5       6.136  22.978  15.959  0.00  0.00    +0.150 HD
BRANCH   6  10
ATOM     10  CA  GLY A   4       4.720  21.067  15.220  0.00  0.00    +0.176 C 
BRANCH  10  12
ATOM     11  C   ILE A   3       4.329  19.818  13.189  0.00  0.00    +0.241 C 
ATOM     12  N   GLY A   4       4.488  19.819  14.519  0.00  0.00    -0.295 N 
ATOM     13  H   GLY A   4       4.445  18.925  15.049  0.00  0.00    +0.150 HD
ATOM     14  O   ILE A   3       4.475  20.781  12.454  0.00  0.00    -0.273 OA
BRANCH  11  15
ATOM     15  CA  ILE A   3       3.884  18.450  12.671  0.00  0.00    +0.149 C 
BRANCH  15  18
ATOM     16  C   MET A   2       1.792  18.196  11.430  0.00  0.00    +0.241 C 
ATOM     17  O   MET A   2       1.303  17.445  12.292  0.00  0.00    -0.273 OA
ATOM     18  N   ILE A   3       3.018  18.697  11.508  0.00  0.00    -0.297 N 
ATOM     19  H   ILE A   3       3.377  19.280  10.725  0.00  0.00    +0.150 HD
BRANCH  16  20
ATOM     20  CA  MET A   2       0.952  18.564  10.214  0.00  0.00    +0.149 C 
BRANCH  20  22
ATOM     21  C   LYS A   1       0.768  16.905   8.430  0.00  0.00    +0.238 C 
ATOM     22  N   MET A   2       0.401  17.339   9.624  0.00  0.00    -0.297 N 
ATOM     23  H   MET A   2      -0.302  16.794  10.163  0.00  0.00    +0.150 HD
ATOM     24  O   LYS A   1       1.482  17.522   7.618  0.00  0.00    -0.274 OA
BRANCH  21  25
ATOM     25  CA  LYS A   1       0.298  15.512   8.058  0.00  0.00    +0.145 C 
BRANCH  25  26
ATOM     26  N   LYS A   1       0.194  15.435   6.618  0.00  0.00    -0.238 NA
ATOM     27  H   LYS A   1       0.860  15.988   6.041  0.00  0.00    +0.142 HD
ENDBRANCH  25  26
BRANCH  25  28
ATOM     28  CB  LYS A   1       1.324  14.488   8.547  0.00  0.00    +0.026 C 
BRANCH  28  29
ATOM     29  CG  LYS A   1       1.406  14.189  10.021  0.00  0.00    -0.000 C 
BRANCH  29  30
ATOM     30  CD  LYS A   1       2.409  13.077  10.301  0.00  0.00    -0.024 C 
BRANCH  30  31
ATOM     31  CE  LYS A   1       2.697  12.889  11.788  0.00  0.00    -0.086 C 
BRANCH  31  32
ATOM     32  NZ  LYS A   1       1.541  12.176  12.400  0.00  0.00    +0.380 N 
ATOM     33  HZ1 LYS A   1       1.718  12.038  13.415  0.00  0.00    -0.089 HD
ATOM     34  HZ2 LYS A   1       0.678  12.742  12.271  0.00  0.00    -0.089 HD
ATOM     35  HZ3 LYS A   1       1.422  11.251  11.939  0.00  0.00    -0.089 HD
ENDBRANCH  31  32
ENDBRANCH  30  31
ENDBRANCH  29  30
ENDBRANCH  28  29
ENDBRANCH  25  28
ENDBRANCH  21  25
ENDBRANCH  20  22
BRANCH  20  36
ATOM     36  CB  MET A   2      -0.127  19.545  10.666  0.00  0.00    +0.041 C 
BRANCH  36  37
ATOM     37  CG  MET A   2      -1.015  20.102   9.570  0.00  0.00    +0.060 C 
BRANCH  37  38
ATOM     38  SD  MET A   2      -0.104  21.392   8.719  0.00  0.00    -0.139 S 
ATOM     39  CE  MET A   2      -1.384  22.042   7.636  0.00  0.00    +0.069 C 
ENDBRANCH  37  38
ENDBRANCH  36  37
ENDBRANCH  20  36
ENDBRANCH  16  20
ENDBRANCH  15  18
BRANCH  15  40
ATOM     40  CB  ILE A   3       5.088  17.565  12.367  0.00  0.00    +0.027 C 
ATOM     41  CG2 ILE A   3       4.665  16.178  11.920  0.00  0.00    +0.002 C 
BRANCH  40  42
ATOM     42  CG1 ILE A   3       6.032  18.200  11.346  0.00  0.00    +0.002 C 
ATOM     43  CD1 ILE A   3       7.319  17.385  11.080  0.00  0.00    +0.000 C 
ENDBRANCH  40  42
ENDBRANCH  15  40
ENDBRANCH  11  15
ENDBRANCH  10  12
ENDBRANCH   6  10
ENDBRANCH   5   8
ENDBRANCH   1   5
BRANCH   2  44
ATOM     44  CA  ILE A   6       9.214  25.525  18.230  0.00  0.00    +0.149 C 
BRANCH  44  45
ATOM     45  C   ILE A   6       8.994  26.268  16.918  0.00  0.00    +0.241 C 
ATOM     46  N   GLY A   7       8.281  27.380  16.995  0.00  0.00    -0.295 N 
ATOM     47  H   GLY A   7       7.946  27.681  17.932  0.00  0.00    +0.150 HD
ATOM     48  O   ILE A   6       9.430  25.910  15.830  0.00  0.00    -0.273 OA
BRANCH  46  49
ATOM     49  CA  GLY A   7       7.944  28.192  15.868  0.00  0.00    +0.176 C 
BRANCH  49  50
ATOM     50  C   GLY A   7       6.635  27.739  15.246  0.00  0.00    +0.243 C 
ATOM     51  N   GLY A   8       6.019  26.670  15.691  0.00  0.00    -0.295 N 
ATOM     52  H   GLY A   8       6.454  26.106  16.449  0.00  0.00    +0.150 HD
ATOM     53  O   GLY A   7       6.198  28.415  14.321  0.00  0.00    -0.273 OA
BRANCH  51  54
ATOM     54  CA  GLY A   8       4.724  26.259  15.134  0.00  0.00    +0.176 C 
BRANCH  54  55
ATOM     55  C   GLY A   8       4.778  25.010  14.265  0.00  0.00    +0.243 C 
ATOM     56  O   GLY A   8       5.638  24.167  14.434  0.00  0.00    -0.273 OA
ATOM     57  N   PHE A   9       3.851  24.857  13.327  0.00  0.00    -0.297 N 
ATOM     58  H   PHE A   9       3.210  25.661  13.172  0.00  0.00    +0.150 HD
BRANCH  57  59
ATOM     59  CA  PHE A   9       3.636  23.689  12.495  0.00  0.00    +0.153 C 
BRANCH  59  60
ATOM     60  C   PHE A   9       4.073  23.876  11.048  0.00  0.00    +0.241 C 
ATOM     61  O   PHE A   9       4.033  25.012  10.531  0.00  0.00    -0.273 OA
ATOM     62  N   ILE A  10       4.472  22.770  10.451  0.00  0.00    -0.298 N 
ATOM     63  H   ILE A  10       4.676  21.937  11.039  0.00  0.00    +0.150 HD
BRANCH  62  64
ATOM     64  CA  ILE A  10       4.643  22.655   8.994  0.00  0.00    +0.137 C 
BRANCH  64  65
ATOM     65  CB  ILE A  10       6.128  22.524   8.603  0.00  0.00    +0.026 C 
ATOM     66  CG2 ILE A  10       6.894  23.781   9.006  0.00  0.00    +0.002 C 
BRANCH  65  67
ATOM     67  CG1 ILE A  10       6.785  21.271   9.171  0.00  0.00    +0.002 C 
ATOM     68  CD1 ILE A  10       8.164  21.043   8.592  0.00  0.00    +0.000 C 
ENDBRANCH  65  67
ENDBRANCH  64  65
BRANCH  64  69
ATOM     69  C   ILE A  10       3.836  21.469   8.458  0.00  0.00    +0.227 C 
ATOM     70  O   ILE A  10       3.593  20.503   9.191  0.00  0.00    -0.286 OA
ENDBRANCH  64  69
ENDBRANCH  62  64
ENDBRANCH  59  60
BRANCH  59  71
ATOM     71  CB  PHE A   9       2.154  23.294  12.486  0.00  0.00    +0.055 C 
BRANCH  71  72
ATOM     72  CG  PHE A   9       1.704  22.693  13.801  0.00  0.00    -0.020 A 
ATOM     73  CD2 PHE A   9       1.504  23.477  14.920  0.00  0.00    -0.004 A 
ATOM     74  CE2 PHE A   9       1.083  22.940  16.132  0.00  0.00    -0.000 A 
ATOM     75  CZ  PHE A   9       0.867  21.595  16.226  0.00  0.00    -0.000 A 
ATOM     76  CE1 PHE A   9       1.067  20.793  15.117  0.00  0.00    -0.000 A 
ATOM     77  CD1 PHE A   9       1.463  21.335  13.924  0.00  0.00    -0.004 A 
ENDBRANCH  71  72
ENDBRANCH  59  71
ENDBRANCH  57  59
ENDBRANCH  54  55
ENDBRANCH  51  54
ENDBRANCH  49  50
ENDBRANCH  46  49
ENDBRANCH  44  45
BRANCH  44  78
ATOM     78  CB  ILE A   6      10.623  25.692  18.814  0.00  0.00    +0.027 C 
ATOM     79  CG2 ILE A   6      11.154  27.111  18.547  0.00  0.00    +0.002 C 
BRANCH  78  80
ATOM     80  CG1 ILE A   6      10.697  25.310  20.299  0.00  0.00    +0.002 C 
ATOM     81  CD1 ILE A   6      12.071  25.211  20.885  0.00  0.00    +0.000 C 
ENDBRANCH  78  80
ENDBRANCH  44  78
ENDBRANCH   2  44
TORSDOF 36
REMARK  Name = ../refined-set-2016/3vfb/3vfb_pocket.pdb
REMARK  234 active torsions:
REMARK  status: ('A' for Active; 'I' for Inactive)
REMARK    1  A    between atoms: _1  and  _3
REMARK    2  A    between atoms: _3  and  _4
REMARK    3  A    between atoms: _3  and  _6
REMARK    4  A    between atoms: _6  and  _7
REMARK    5  A    between atoms: _7  and  _8
REMARK    6  A    between atoms: _8  and  _9
REMARK    7  A    between atoms: _18  and  _20
REMARK    8  A    between atoms: _20  and  _21
REMARK    9  A    between atoms: _20  and  _23
REMARK   10  A    between atoms: _23  and  _24
REMARK   11  A    between atoms: _27  and  _29
REMARK   12  A    between atoms: _29  and  _30
REMARK   13  A    between atoms: _29  and  _32
REMARK   14  A    between atoms: _32  and  _33
REMARK   15  A    between atoms: _36  and  _38
REMARK   16  A    between atoms: _38  and  _39
REMARK   17  A    between atoms: _38  and  _41
REMARK   18  A    between atoms: _41  and  _42
REMARK   19  A    between atoms: _45  and  _47
REMARK   20  A    between atoms: _47  and  _48
REMARK   21  A    between atoms: _47  and  _50
REMARK   22  A    between atoms: _50  and  _51
REMARK   23  A    between atoms: _54  and  _56
REMARK   24  A    between atoms: _56  and  _57
REMARK   25  A    between atoms: _56  and  _59
REMARK   26  A    between atoms: _59  and  _60
REMARK   27  A    between atoms: _63  and  _65
REMARK   28  A    between atoms: _65  and  _66
REMARK   29  A    between atoms: _68  and  _70
REMARK   30  A    between atoms: _70  and  _71
REMARK   31  A    between atoms: _74  and  _76
REMARK   32  A    between atoms: _76  and  _77
REMARK   33  A    between atoms: _76  and  _79
REMARK   34  A    between atoms: _79  and  _80
REMARK   35  A    between atoms: _83  and  _85
REMARK   36  A    between atoms: _85  and  _86
REMARK   37  A    between atoms: _85  and  _88
REMARK   38  A    between atoms: _88  and  _89
REMARK   39  A    between atoms: _92  and  _94
REMARK   40  A    between atoms: _94  and  _95
REMARK   41  A    between atoms: _94  and  _97
REMARK   42  A    between atoms: _97  and  _98
REMARK   43  A    between atoms: _101  and  _103
REMARK   44  A    between atoms: _103  and  _104
REMARK   45  A    between atoms: _103  and  _106
REMARK   46  A    between atoms: _109  and  _111
REMARK   47  A    between atoms: _111  and  _112
REMARK   48  A    between atoms: _111  and  _114
REMARK   49  A    between atoms: _114  and  _115
REMARK   50  A    between atoms: _115  and  _116
REMARK   51  A    between atoms: _116  and  _117
REMARK   52  A    between atoms: _117  and  _118
REMARK   53  A    between atoms: _122  and  _124
REMARK   54  A    between atoms: _124  and  _125
REMARK   55  A    between atoms: _124  and  _127
REMARK   56  A    between atoms: _127  and  _128
REMARK   57  A    between atoms: _128  and  _129
REMARK   58  A    between atoms: _131  and  _133
REMARK   59  A    between atoms: _133  and  _134
REMARK   60  A    between atoms: _133  and  _136
REMARK   61  A    between atoms: _136  and  _137
REMARK   62  A    between atoms: _140  and  _142
REMARK   63  A    between atoms: _142  and  _143
REMARK   64  A    between atoms: _145  and  _147
REMARK   65  A    between atoms: _147  and  _148
REMARK   66  A    between atoms: _150  and  _152
REMARK   67  A    between atoms: _152  and  _153
REMARK   68  A    between atoms: _152  and  _155
REMARK   69  A    between atoms: _155  and  _156
REMARK   70  A    between atoms: _159  and  _161
REMARK   71  A    between atoms: _161  and  _162
REMARK   72  A    between atoms: _164  and  _166
REMARK   73  A    between atoms: _166  and  _167
REMARK   74  A    between atoms: _169  and  _171
REMARK   75  A    between atoms: _171  and  _172
REMARK   76  A    between atoms: _171  and  _174
REMARK   77  A    between atoms: _174  and  _175
REMARK   78  A    between atoms: _181  and  _183
REMARK   79  A    between atoms: _183  and  _184
REMARK   80  A    between atoms: _183  and  _186
REMARK   81  A    between atoms: _186  and  _187
REMARK   82  A    between atoms: _190  and  _192
REMARK   83  A    between atoms: _192  and  _193
REMARK   84  A    between atoms: _192  and  _195
REMARK   85  A    between atoms: _195  and  _196
REMARK   86  A    between atoms: _199  and  _201
REMARK   87  A    between atoms: _201  and  _202
REMARK   88  A    between atoms: _201  and  _204
REMARK   89  A    between atoms: _204  and  _205
REMARK   90  A    between atoms: _209  and  _210
REMARK   91  A    between atoms: _215  and  _217
REMARK   92  A    between atoms: _217  and  _218
REMARK   93  A    between atoms: _217  and  _220
REMARK   94  A    between atoms: _223  and  _225
REMARK   95  A    between atoms: _225  and  _226
REMARK   96  A    between atoms: _225  and  _228
REMARK   97  A    between atoms: _228  and  _229
REMARK   98  A    between atoms: _234  and  _236
REMARK   99  A    between atoms: _236  and  _237
REMARK  100  A    between atoms: _236  and  _239
REMARK  101  A    between atoms: _239  and  _240
REMARK  102  A    between atoms: _243  and  _245
REMARK  103  A    between atoms: _245  and  _246
REMARK  104  A    between atoms: _245  and  _248
REMARK  105  A    between atoms: _248  and  _249
REMARK  106  A    between atoms: _252  and  _254
REMARK  107  A    between atoms: _254  and  _255
REMARK  108  A    between atoms: _257  and  _259
REMARK  109  A    between atoms: _259  and  _260
REMARK  110  A    between atoms: _259  and  _262
REMARK  111  A    between atoms: _262  and  _263
REMARK  112  A    between atoms: _263  and  _264
REMARK  113  A    between atoms: _264  and  _265
REMARK  114  A    between atoms: _274  and  _276
REMARK  115  A    between atoms: _276  and  _277
REMARK  116  A    between atoms: _276  and  _279
REMARK  117  A    between atoms: _279  and  _280
REMARK  118  A    between atoms: _283  and  _285
REMARK  119  A    between atoms: _285  and  _286
REMARK  120  A    between atoms: _285  and  _288
REMARK  121  A    between atoms: _288  and  _289
REMARK  122  A    between atoms: _289  and  _290
REMARK  123  A    between atoms: _290  and  _291
REMARK  124  A    between atoms: _300  and  _302
REMARK  125  A    between atoms: _302  and  _303
REMARK  126  A    between atoms: _302  and  _305
REMARK  127  A    between atoms: _305  and  _306
REMARK  128  A    between atoms: _309  and  _311
REMARK  129  A    between atoms: _311  and  _312
REMARK  130  A    between atoms: _311  and  _314
REMARK  131  A    between atoms: _314  and  _315
REMARK  132  A    between atoms: _318  and  _320
REMARK  133  A    between atoms: _320  and  _321
REMARK  134  A    between atoms: _320  and  _323
REMARK  135  A    between atoms: _323  and  _324
REMARK  136  A    between atoms: _327  and  _329
REMARK  137  A    between atoms: _329  and  _330
REMARK  138  A    between atoms: _329  and  _332
REMARK  139  A    between atoms: _332  and  _333
REMARK  140  A    between atoms: _336  and  _338
REMARK  141  A    between atoms: _338  and  _339
REMARK  142  A    between atoms: _341  and  _343
REMARK  143  A    between atoms: _343  and  _344
REMARK  144  A    between atoms: _347  and  _349
REMARK  145  A    between atoms: _349  and  _350
REMARK  146  A    between atoms: _349  and  _352
REMARK  147  A    between atoms: _352  and  _353
REMARK  148  A    between atoms: _356  and  _358
REMARK  149  A    between atoms: _358  and  _359
REMARK  150  A    between atoms: _358  and  _361
REMARK  151  A    between atoms: _361  and  _362
REMARK  152  A    between atoms: _365  and  _367
REMARK  153  A    between atoms: _367  and  _368
REMARK  154  A    between atoms: _367  and  _370
REMARK  155  A    between atoms: _370  and  _371
REMARK  156  A    between atoms: _374  and  _376
REMARK  157  A    between atoms: _376  and  _377
REMARK  158  A    between atoms: _376  and  _379
REMARK  159  A    between atoms: _382  and  _384
REMARK  160  A    between atoms: _384  and  _385
REMARK  161  A    between atoms: _384  and  _387
REMARK  162  A    between atoms: _387  and  _388
REMARK  163  A    between atoms: _388  and  _389
REMARK  164  A    between atoms: _389  and  _390
REMARK  165  A    between atoms: _390  and  _391
REMARK  166  A    between atoms: _395  and  _397
REMARK  167  A    between atoms: _397  and  _398
REMARK  168  A    between atoms: _397  and  _400
REMARK  169  A    between atoms: _400  and  _401
REMARK  170  A    between atoms: _401  and  _402
REMARK  171  A    between atoms: _404  and  _406
REMARK  172  A    between atoms: _406  and  _407
REMARK  173  A    between atoms: _406  and  _409
REMARK  174  A    between atoms: _409  and  _410
REMARK  175  A    between atoms: _413  and  _415
REMARK  176  A    between atoms: _415  and  _416
REMARK  177  A    between atoms: _418  and  _420
REMARK  178  A    between atoms: _420  and  _421
REMARK  179  A    between atoms: _423  and  _425
REMARK  180  A    between atoms: _425  and  _426
REMARK  181  A    between atoms: _425  and  _428
REMARK  182  A    between atoms: _428  and  _429
REMARK  183  A    between atoms: _432  and  _434
REMARK  184  A    between atoms: _434  and  _435
REMARK  185  A    between atoms: _437  and  _439
REMARK  186  A    between atoms: _439  and  _440
REMARK  187  A    between atoms: _442  and  _444
REMARK  188  A    between atoms: _444  and  _445
REMARK  189  A    between atoms: _444  and  _447
REMARK  190  A    between atoms: _447  and  _448
REMARK  191  A    between atoms: _454  and  _456
REMARK  192  A    between atoms: _456  and  _457
REMARK  193  A    between atoms: _456  and  _459
REMARK  194  A    between atoms: _459  and  _460
REMARK  195  A    between atoms: _463  and  _465
REMARK  196  A    between atoms: _465  and  _466
REMARK  197  A    between atoms: _465  and  _468
REMARK  198  A    between atoms: _471  and  _473
REMARK  199  A    between atoms: _473  and  _474
REMARK  200  A    between atoms: _473  and  _476
REMARK  201  A    between atoms: _476  and  _477
REMARK  202  A    between atoms: _481  and  _482
REMARK  203  A    between atoms: _487  and  _489
REMARK  204  A    between atoms: _489  and  _490
REMARK  205  A    between atoms: _489  and  _492
REMARK  206  A    between atoms: _492  and  _493
REMARK  207  A    between atoms: _497  and  _498
REMARK  208  A    between atoms: _503  and  _505
REMARK  209  A    between atoms: _505  and  _506
REMARK  210  A    between atoms: _505  and  _508
REMARK  211  A    between atoms: _511  and  _513
REMARK  212  A    between atoms: _513  and  _514
REMARK  213  A    between atoms: _513  and  _516
REMARK  214  A    between atoms: _516  and  _517
REMARK  215  A    between atoms: _522  and  _524
REMARK  216  A    between atoms: _524  and  _525
REMARK  217  A    between atoms: _524  and  _527
REMARK  218  A    between atoms: _527  and  _528
REMARK  219  A    between atoms: _531  and  _533
REMARK  220  A    between atoms: _533  and  _534
REMARK  221  A    between atoms: _533  and  _536
REMARK  222  A    between atoms: _536  and  _537
REMARK  223  A    between atoms: _540  and  _542
REMARK  224  A    between atoms: _542  and  _543
REMARK  225  A    between atoms: _545  and  _547
REMARK  226  A    between atoms: _547  and  _548
REMARK  227  A    between atoms: _547  and  _550
REMARK  228  A    between atoms: _550  and  _551
REMARK  229  A    between atoms: _551  and  _552
REMARK  230  A    between atoms: _552  and  _553
REMARK  231  A    between atoms: _562  and  _564
REMARK  232  A    between atoms: _564  and  _565
REMARK  233  A    between atoms: _564  and  _567
REMARK  234  A    between atoms: _567  and  _568
REMARK                            x       y       z     vdW  Elec       q    Type
REMARK                         _______ _______ _______ _____ _____    ______ ____
ROOT
ATOM      1  CA  VAL A   1       4.572  17.261   5.511  0.00  0.00    +0.133 C 
ENDROOT
BRANCH   1   2
ATOM      2  CB  VAL A   1       5.488  16.630   6.577  0.00  0.00    +0.023 C 
ATOM      3  CG2 VAL A   1       4.735  15.910   7.681  0.00  0.00    +0.002 C 
ATOM      4  CG1 VAL A   1       6.376  17.705   7.190  0.00  0.00    +0.002 C 
ENDBRANCH   1   2
BRANCH   1   5
ATOM      5  N   VAL A   1       3.683  18.288   6.043  0.00  0.00    -0.239 NA
ATOM      6  H   VAL A   1       2.872  17.984   6.618  0.00  0.00    +0.142 HD
ENDBRANCH   1   5
BRANCH   1   7
ATOM      7  C   VAL A   1       3.769  16.151   4.822  0.00  0.00    +0.224 C 
ATOM      8  O   VAL A   1       2.569  16.019   5.018  0.00  0.00    -0.287 OA
ENDBRANCH   1   7
TORSDOF 3
REMARK  Name = ../refined-set-2016/3vfb/3vfb_pocket.pdb
REMARK  234 active torsions:
REMARK  status: ('A' for Active; 'I' for Inactive)
REMARK    1  A    between atoms: _1  and  _3
REMARK    2  A    between atoms: _3  and  _4
REMARK    3  A    between atoms: _3  and  _6
REMARK    4  A    between atoms: _6  and  _7
REMARK    5  A    between atoms: _7  and  _8
REMARK    6  A    between atoms: _8  and  _9
REMARK    7  A    between atoms: _18  and  _20
REMARK    8  A    between atoms: _20  and  _21
REMARK    9  A    between atoms: _20  and  _23
REMARK   10  A    between atoms: _23  and  _24
REMARK   11  A    between atoms: _27  and  _29
REMARK   12  A    between atoms: _29  and  _30
REMARK   13  A    between atoms: _29  and  _32
REMARK   14  A    between atoms: _32  and  _33
REMARK   15  A    between atoms: _36  and  _38
REMARK   16  A    between atoms: _38  and  _39
REMARK   17  A    between atoms: _38  and  _41
REMARK   18  A    between atoms: _41  and  _42
REMARK   19  A    between atoms: _45  and  _47
REMARK   20  A    between atoms: _47  and  _48
REMARK   21  A    between atoms: _47  and  _50
REMARK   22  A    between atoms: _50  and  _51
REMARK   23  A    between atoms: _54  and  _56
REMARK   24  A    between atoms: _56  and  _57
REMARK   25  A    between atoms: _56  and  _59
REMARK   26  A    between atoms: _59  and  _60
REMARK   27  A    between atoms: _63  and  _65
REMARK   28  A    between atoms: _65  and  _66
REMARK   29  A    between atoms: _68  and  _70
REMARK   30  A    between atoms: _70  and  _71
REMARK   31  A    between atoms: _74  and  _76
REMARK   32  A    between atoms: _76  and  _77
REMARK   33  A    between atoms: _76  and  _79
REMARK   34  A    between atoms: _79  and  _80
REMARK   35  A    between atoms: _83  and  _85
REMARK   36  A    between atoms: _85  and  _86
REMARK   37  A    between atoms: _85  and  _88
REMARK   38  A    between atoms: _88  and  _89
REMARK   39  A    between atoms: _92  and  _94
REMARK   40  A    between atoms: _94  and  _95
REMARK   41  A    between atoms: _94  and  _97
REMARK   42  A    between atoms: _97  and  _98
REMARK   43  A    between atoms: _101  and  _103
REMARK   44  A    between atoms: _103  and  _104
REMARK   45  A    between atoms: _103  and  _106
REMARK   46  A    between atoms: _109  and  _111
REMARK   47  A    between atoms: _111  and  _112
REMARK   48  A    between atoms: _111  and  _114
REMARK   49  A    between atoms: _114  and  _115
REMARK   50  A    between atoms: _115  and  _116
REMARK   51  A    between atoms: _116  and  _117
REMARK   52  A    between atoms: _117  and  _118
REMARK   53  A    between atoms: _122  and  _124
REMARK   54  A    between atoms: _124  and  _125
REMARK   55  A    between atoms: _124  and  _127
REMARK   56  A    between atoms: _127  and  _128
REMARK   57  A    between atoms: _128  and  _129
REMARK   58  A    between atoms: _131  and  _133
REMARK   59  A    between atoms: _133  and  _134
REMARK   60  A    between atoms: _133  and  _136
REMARK   61  A    between atoms: _136  and  _137
REMARK   62  A    between atoms: _140  and  _142
REMARK   63  A    between atoms: _142  and  _143
REMARK   64  A    between atoms: _145  and  _147
REMARK   65  A    between atoms: _147  and  _148
REMARK   66  A    between atoms: _150  and  _152
REMARK   67  A    between atoms: _152  and  _153
REMARK   68  A    between atoms: _152  and  _155
REMARK   69  A    between atoms: _155  and  _156
REMARK   70  A    between atoms: _159  and  _161
REMARK   71  A    between atoms: _161  and  _162
REMARK   72  A    between atoms: _164  and  _166
REMARK   73  A    between atoms: _166  and  _167
REMARK   74  A    between atoms: _169  and  _171
REMARK   75  A    between atoms: _171  and  _172
REMARK   76  A    between atoms: _171  and  _174
REMARK   77  A    between atoms: _174  and  _175
REMARK   78  A    between atoms: _181  and  _183
REMARK   79  A    between atoms: _183  and  _184
REMARK   80  A    between atoms: _183  and  _186
REMARK   81  A    between atoms: _186  and  _187
REMARK   82  A    between atoms: _190  and  _192
REMARK   83  A    between atoms: _192  and  _193
REMARK   84  A    between atoms: _192  and  _195
REMARK   85  A    between atoms: _195  and  _196
REMARK   86  A    between atoms: _199  and  _201
REMARK   87  A    between atoms: _201  and  _202
REMARK   88  A    between atoms: _201  and  _204
REMARK   89  A    between atoms: _204  and  _205
REMARK   90  A    between atoms: _209  and  _210
REMARK   91  A    between atoms: _215  and  _217
REMARK   92  A    between atoms: _217  and  _218
REMARK   93  A    between atoms: _217  and  _220
REMARK   94  A    between atoms: _223  and  _225
REMARK   95  A    between atoms: _225  and  _226
REMARK   96  A    between atoms: _225  and  _228
REMARK   97  A    between atoms: _228  and  _229
REMARK   98  A    between atoms: _234  and  _236
REMARK   99  A    between atoms: _236  and  _237
REMARK  100  A    between atoms: _236  and  _239
REMARK  101  A    between atoms: _239  and  _240
REMARK  102  A    between atoms: _243  and  _245
REMARK  103  A    between atoms: _245  and  _246
REMARK  104  A    between atoms: _245  and  _248
REMARK  105  A    between atoms: _248  and  _249
REMARK  106  A    between atoms: _252  and  _254
REMARK  107  A    between atoms: _254  and  _255
REMARK  108  A    between atoms: _257  and  _259
REMARK  109  A    between atoms: _259  and  _260
REMARK  110  A    between atoms: _259  and  _262
REMARK  111  A    between atoms: _262  and  _263
REMARK  112  A    between atoms: _263  and  _264
REMARK  113  A    between atoms: _264  and  _265
REMARK  114  A    between atoms: _274  and  _276
REMARK  115  A    between atoms: _276  and  _277
REMARK  116  A    between atoms: _276  and  _279
REMARK  117  A    between atoms: _279  and  _280
REMARK  118  A    between atoms: _283  and  _285
REMARK  119  A    between atoms: _285  and  _286
REMARK  120  A    between atoms: _285  and  _288
REMARK  121  A    between atoms: _288  and  _289
REMARK  122  A    between atoms: _289  and  _290
REMARK  123  A    between atoms: _290  and  _291
REMARK  124  A    between atoms: _300  and  _302
REMARK  125  A    between atoms: _302  and  _303
REMARK  126  A    between atoms: _302  and  _305
REMARK  127  A    between atoms: _305  and  _306
REMARK  128  A    between atoms: _309  and  _311
REMARK  129  A    between atoms: _311  and  _312
REMARK  130  A    between atoms: _311  and  _314
REMARK  131  A    between atoms: _314  and  _315
REMARK  132  A    between atoms: _318  and  _320
REMARK  133  A    between atoms: _320  and  _321
REMARK  134  A    between atoms: _320  and  _323
REMARK  135  A    between atoms: _323  and  _324
REMARK  136  A    between atoms: _327  and  _329
REMARK  137  A    between atoms: _329  and  _330
REMARK  138  A    between atoms: _329  and  _332
REMARK  139  A    between atoms: _332  and  _333
REMARK  140  A    between atoms: _336  and  _338
REMARK  141  A    between atoms: _338  and  _339
REMARK  142  A    between atoms: _341  and  _343
REMARK  143  A    between atoms: _343  and  _344
REMARK  144  A    between atoms: _347  and  _349
REMARK  145  A    between atoms: _349  and  _350
REMARK  146  A    between atoms: _349  and  _352
REMARK  147  A    between atoms: _352  and  _353
REMARK  148  A    between atoms: _356  and  _358
REMARK  149  A    between atoms: _358  and  _359
REMARK  150  A    between atoms: _358  and  _361
REMARK  151  A    between atoms: _361  and  _362
REMARK  152  A    between atoms: _365  and  _367
REMARK  153  A    between atoms: _367  and  _368
REMARK  154  A    between atoms: _367  and  _370
REMARK  155  A    between atoms: _370  and  _371
REMARK  156  A    between atoms: _374  and  _376
REMARK  157  A    between atoms: _376  and  _377
REMARK  158  A    between atoms: _376  and  _379
REMARK  159  A    between atoms: _382  and  _384
REMARK  160  A    between atoms: _384  and  _385
REMARK  161  A    between atoms: _384  and  _387
REMARK  162  A    between atoms: _387  and  _388
REMARK  163  A    between atoms: _388  and  _389
REMARK  164  A    between atoms: _389  and  _390
REMARK  165  A    between atoms: _390  and  _391
REMARK  166  A    between atoms: _395  and  _397
REMARK  167  A    between atoms: _397  and  _398
REMARK  168  A    between atoms: _397  and  _400
REMARK  169  A    between atoms: _400  and  _401
REMARK  170  A    between atoms: _401  and  _402
REMARK  171  A    between atoms: _404  and  _406
REMARK  172  A    between atoms: _406  and  _407
REMARK  173  A    between atoms: _406  and  _409
REMARK  174  A    between atoms: _409  and  _410
REMARK  175  A    between atoms: _413  and  _415
REMARK  176  A    between atoms: _415  and  _416
REMARK  177  A    between atoms: _418  and  _420
REMARK  178  A    between atoms: _420  and  _421
REMARK  179  A    between atoms: _423  and  _425
REMARK  180  A    between atoms: _425  and  _426
REMARK  181  A    between atoms: _425  and  _428
REMARK  182  A    between atoms: _428  and  _429
REMARK  183  A    between atoms: _432  and  _434
REMARK  184  A    between atoms: _434  and  _435
REMARK  185  A    between atoms: _437  and  _439
REMARK  186  A    between atoms: _439  and  _440
REMARK  187  A    between atoms: _442  and  _444
REMARK  188  A    between atoms: _444  and  _445
REMARK  189  A    between atoms: _444  and  _447
REMARK  190  A    between atoms: _447  and  _448
REMARK  191  A    between atoms: _454  and  _456
REMARK  192  A    between atoms: _456  and  _457
REMARK  193  A    between atoms: _456  and  _459
REMARK  194  A    between atoms: _459  and  _460
REMARK  195  A    between atoms: _463  and  _465
REMARK  196  A    between atoms: _465  and  _466
REMARK  197  A    between atoms: _465  and  _468
REMARK  198  A    between atoms: _471  and  _473
REMARK  199  A    between atoms: _473  and  _474
REMARK  200  A    between atoms: _473  and  _476
REMARK  201  A    between atoms: _476  and  _477
REMARK  202  A    between atoms: _481  and  _482
REMARK  203  A    between atoms: _487  and  _489
REMARK  204  A    between atoms: _489  and  _490
REMARK  205  A    between atoms: _489  and  _492
REMARK  206  A    between atoms: _492  and  _493
REMARK  207  A    between atoms: _497  and  _498
REMARK  208  A    between atoms: _503  and  _505
REMARK  209  A    between atoms: _505  and  _506
REMARK  210  A    between atoms: _505  and  _508
REMARK  211  A    between atoms: _511  and  _513
REMARK  212  A    between atoms: _513  and  _514
REMARK  213  A    between atoms: _513  and  _516
REMARK  214  A    between atoms: _516  and  _517
REMARK  215  A    between atoms: _522  and  _524
REMARK  216  A    between atoms: _524  and  _525
REMARK  217  A    between atoms: _524  and  _527
REMARK  218  A    between atoms: _527  and  _528
REMARK  219  A    between atoms: _531  and  _533
REMARK  220  A    between atoms: _533  and  _534
REMARK  221  A    between atoms: _533  and  _536
REMARK  222  A    between atoms: _536  and  _537
REMARK  223  A    between atoms: _540  and  _542
REMARK  224  A    between atoms: _542  and  _543
REMARK  225  A    between atoms: _545  and  _547
REMARK  226  A    between atoms: _547  and  _548
REMARK  227  A    between atoms: _547  and  _550
REMARK  228  A    between atoms: _550  and  _551
REMARK  229  A    between atoms: _551  and  _552
REMARK  230  A    between atoms: _552  and  _553
REMARK  231  A    between atoms: _562  and  _564
REMARK  232  A    between atoms: _564  and  _565
REMARK  233  A    between atoms: _564  and  _567
REMARK  234  A    between atoms: _567  and  _568
REMARK                            x       y       z     vdW  Elec       q    Type
REMARK                         _______ _______ _______ _____ _____    ______ ____
ROOT
ATOM      1  CA  LEU A   1       8.022  12.739   6.806  0.00  0.00    +0.133 C 
ENDROOT
BRANCH   1   2
ATOM      2  N   LEU A   1       8.809  11.555   7.112  0.00  0.00    -0.239 NA
ATOM      3  H   LEU A   1       9.521  11.592   7.869  0.00  0.00    +0.142 HD
ENDBRANCH   1   2
BRANCH   1   4
ATOM      4  C   LEU A   1       8.832  13.657   5.905  0.00  0.00    +0.224 C 
ATOM      5  O   LEU A   1       9.985  13.928   6.216  0.00  0.00    -0.287 OA
ENDBRANCH   1   4
BRANCH   1   6
ATOM      6  CB  LEU A   1       7.651  13.448   8.098  0.00  0.00    +0.025 C 
BRANCH   6   7
ATOM      7  CG  LEU A   1       6.992  12.548   9.146  0.00  0.00    +0.002 C 
ATOM      8  CD2 LEU A   1       6.594  13.357  10.377  0.00  0.00    +0.000 C 
ATOM      9  CD1 LEU A   1       5.769  11.836   8.581  0.00  0.00    +0.000 C 
ENDBRANCH   6   7
ENDBRANCH   1   6
TORSDOF 4
REMARK  Name = ../refined-set-2016/3vfb/3vfb_pocket.pdb
REMARK  234 active torsions:
REMARK  status: ('A' for Active; 'I' for Inactive)
REMARK    1  A    between atoms: _1  and  _3
REMARK    2  A    between atoms: _3  and  _4
REMARK    3  A    between atoms: _3  and  _6
REMARK    4  A    between atoms: _6  and  _7
REMARK    5  A    between atoms: _7  and  _8
REMARK    6  A    between atoms: _8  and  _9
REMARK    7  A    between atoms: _18  and  _20
REMARK    8  A    between atoms: _20  and  _21
REMARK    9  A    between atoms: _20  and  _23
REMARK   10  A    between atoms: _23  and  _24
REMARK   11  A    between atoms: _27  and  _29
REMARK   12  A    between atoms: _29  and  _30
REMARK   13  A    between atoms: _29  and  _32
REMARK   14  A    between atoms: _32  and  _33
REMARK   15  A    between atoms: _36  and  _38
REMARK   16  A    between atoms: _38  and  _39
REMARK   17  A    between atoms: _38  and  _41
REMARK   18  A    between atoms: _41  and  _42
REMARK   19  A    between atoms: _45  and  _47
REMARK   20  A    between atoms: _47  and  _48
REMARK   21  A    between atoms: _47  and  _50
REMARK   22  A    between atoms: _50  and  _51
REMARK   23  A    between atoms: _54  and  _56
REMARK   24  A    between atoms: _56  and  _57
REMARK   25  A    between atoms: _56  and  _59
REMARK   26  A    between atoms: _59  and  _60
REMARK   27  A    between atoms: _63  and  _65
REMARK   28  A    between atoms: _65  and  _66
REMARK   29  A    between atoms: _68  and  _70
REMARK   30  A    between atoms: _70  and  _71
REMARK   31  A    between atoms: _74  and  _76
REMARK   32  A    between atoms: _76  and  _77
REMARK   33  A    between atoms: _76  and  _79
REMARK   34  A    between atoms: _79  and  _80
REMARK   35  A    between atoms: _83  and  _85
REMARK   36  A    between atoms: _85  and  _86
REMARK   37  A    between atoms: _85  and  _88
REMARK   38  A    between atoms: _88  and  _89
REMARK   39  A    between atoms: _92  and  _94
REMARK   40  A    between atoms: _94  and  _95
REMARK   41  A    between atoms: _94  and  _97
REMARK   42  A    between atoms: _97  and  _98
REMARK   43  A    between atoms: _101  and  _103
REMARK   44  A    between atoms: _103  and  _104
REMARK   45  A    between atoms: _103  and  _106
REMARK   46  A    between atoms: _109  and  _111
REMARK   47  A    between atoms: _111  and  _112
REMARK   48  A    between atoms: _111  and  _114
REMARK   49  A    between atoms: _114  and  _115
REMARK   50  A    between atoms: _115  and  _116
REMARK   51  A    between atoms: _116  and  _117
REMARK   52  A    between atoms: _117  and  _118
REMARK   53  A    between atoms: _122  and  _124
REMARK   54  A    between atoms: _124  and  _125
REMARK   55  A    between atoms: _124  and  _127
REMARK   56  A    between atoms: _127  and  _128
REMARK   57  A    between atoms: _128  and  _129
REMARK   58  A    between atoms: _131  and  _133
REMARK   59  A    between atoms: _133  and  _134
REMARK   60  A    between atoms: _133  and  _136
REMARK   61  A    between atoms: _136  and  _137
REMARK   62  A    between atoms: _140  and  _142
REMARK   63  A    between atoms: _142  and  _143
REMARK   64  A    between atoms: _145  and  _147
REMARK   65  A    between atoms: _147  and  _148
REMARK   66  A    between atoms: _150  and  _152
REMARK   67  A    between atoms: _152  and  _153
REMARK   68  A    between atoms: _152  and  _155
REMARK   69  A    between atoms: _155  and  _156
REMARK   70  A    between atoms: _159  and  _161
REMARK   71  A    between atoms: _161  and  _162
REMARK   72  A    between atoms: _164  and  _166
REMARK   73  A    between atoms: _166  and  _167
REMARK   74  A    between atoms: _169  and  _171
REMARK   75  A    between atoms: _171  and  _172
REMARK   76  A    between atoms: _171  and  _174
REMARK   77  A    between atoms: _174  and  _175
REMARK   78  A    between atoms: _181  and  _183
REMARK   79  A    between atoms: _183  and  _184
REMARK   80  A    between atoms: _183  and  _186
REMARK   81  A    between atoms: _186  and  _187
REMARK   82  A    between atoms: _190  and  _192
REMARK   83  A    between atoms: _192  and  _193
REMARK   84  A    between atoms: _192  and  _195
REMARK   85  A    between atoms: _195  and  _196
REMARK   86  A    between atoms: _199  and  _201
REMARK   87  A    between atoms: _201  and  _202
REMARK   88  A    between atoms: _201  and  _204
REMARK   89  A    between atoms: _204  and  _205
REMARK   90  A    between atoms: _209  and  _210
REMARK   91  A    between atoms: _215  and  _217
REMARK   92  A    between atoms: _217  and  _218
REMARK   93  A    between atoms: _217  and  _220
REMARK   94  A    between atoms: _223  and  _225
REMARK   95  A    between atoms: _225  and  _226
REMARK   96  A    between atoms: _225  and  _228
REMARK   97  A    between atoms: _228  and  _229
REMARK   98  A    between atoms: _234  and  _236
REMARK   99  A    between atoms: _236  and  _237
REMARK  100  A    between atoms: _236  and  _239
REMARK  101  A    between atoms: _239  and  _240
REMARK  102  A    between atoms: _243  and  _245
REMARK  103  A    between atoms: _245  and  _246
REMARK  104  A    between atoms: _245  and  _248
REMARK  105  A    between atoms: _248  and  _249
REMARK  106  A    between atoms: _252  and  _254
REMARK  107  A    between atoms: _254  and  _255
REMARK  108  A    between atoms: _257  and  _259
REMARK  109  A    between atoms: _259  and  _260
REMARK  110  A    between atoms: _259  and  _262
REMARK  111  A    between atoms: _262  and  _263
REMARK  112  A    between atoms: _263  and  _264
REMARK  113  A    between atoms: _264  and  _265
REMARK  114  A    between atoms: _274  and  _276
REMARK  115  A    between atoms: _276  and  _277
REMARK  116  A    between atoms: _276  and  _279
REMARK  117  A    between atoms: _279  and  _280
REMARK  118  A    between atoms: _283  and  _285
REMARK  119  A    between atoms: _285  and  _286
REMARK  120  A    between atoms: _285  and  _288
REMARK  121  A    between atoms: _288  and  _289
REMARK  122  A    between atoms: _289  and  _290
REMARK  123  A    between atoms: _290  and  _291
REMARK  124  A    between atoms: _300  and  _302
REMARK  125  A    between atoms: _302  and  _303
REMARK  126  A    between atoms: _302  and  _305
REMARK  127  A    between atoms: _305  and  _306
REMARK  128  A    between atoms: _309  and  _311
REMARK  129  A    between atoms: _311  and  _312
REMARK  130  A    between atoms: _311  and  _314
REMARK  131  A    between atoms: _314  and  _315
REMARK  132  A    between atoms: _318  and  _320
REMARK  133  A    between atoms: _320  and  _321
REMARK  134  A    between atoms: _320  and  _323
REMARK  135  A    between atoms: _323  and  _324
REMARK  136  A    between atoms: _327  and  _329
REMARK  137  A    between atoms: _329  and  _330
REMARK  138  A    between atoms: _329  and  _332
REMARK  139  A    between atoms: _332  and  _333
REMARK  140  A    between atoms: _336  and  _338
REMARK  141  A    between atoms: _338  and  _339
REMARK  142  A    between atoms: _341  and  _343
REMARK  143  A    between atoms: _343  and  _344
REMARK  144  A    between atoms: _347  and  _349
REMARK  145  A    between atoms: _349  and  _350
REMARK  146  A    between atoms: _349  and  _352
REMARK  147  A    between atoms: _352  and  _353
REMARK  148  A    between atoms: _356  and  _358
REMARK  149  A    between atoms: _358  and  _359
REMARK  150  A    between atoms: _358  and  _361
REMARK  151  A    between atoms: _361  and  _362
REMARK  152  A    between atoms: _365  and  _367
REMARK  153  A    between atoms: _367  and  _368
REMARK  154  A    between atoms: _367  and  _370
REMARK  155  A    between atoms: _370  and  _371
REMARK  156  A    between atoms: _374  and  _376
REMARK  157  A    between atoms: _376  and  _377
REMARK  158  A    between atoms: _376  and  _379
REMARK  159  A    between atoms: _382  and  _384
REMARK  160  A    between atoms: _384  and  _385
REMARK  161  A    between atoms: _384  and  _387
REMARK  162  A    between atoms: _387  and  _388
REMARK  163  A    between atoms: _388  and  _389
REMARK  164  A    between atoms: _389  and  _390
REMARK  165  A    between atoms: _390  and  _391
REMARK  166  A    between atoms: _395  and  _397
REMARK  167  A    between atoms: _397  and  _398
REMARK  168  A    between atoms: _397  and  _400
REMARK  169  A    between atoms: _400  and  _401
REMARK  170  A    between atoms: _401  and  _402
REMARK  171  A    between atoms: _404  and  _406
REMARK  172  A    between atoms: _406  and  _407
REMARK  173  A    between atoms: _406  and  _409
REMARK  174  A    between atoms: _409  and  _410
REMARK  175  A    between atoms: _413  and  _415
REMARK  176  A    between atoms: _415  and  _416
REMARK  177  A    between atoms: _418  and  _420
REMARK  178  A    between atoms: _420  and  _421
REMARK  179  A    between atoms: _423  and  _425
REMARK  180  A    between atoms: _425  and  _426
REMARK  181  A    between atoms: _425  and  _428
REMARK  182  A    between atoms: _428  and  _429
REMARK  183  A    between atoms: _432  and  _434
REMARK  184  A    between atoms: _434  and  _435
REMARK  185  A    between atoms: _437  and  _439
REMARK  186  A    between atoms: _439  and  _440
REMARK  187  A    between atoms: _442  and  _444
REMARK  188  A    between atoms: _444  and  _445
REMARK  189  A    between atoms: _444  and  _447
REMARK  190  A    between atoms: _447  and  _448
REMARK  191  A    between atoms: _454  and  _456
REMARK  192  A    between atoms: _456  and  _457
REMARK  193  A    between atoms: _456  and  _459
REMARK  194  A    between atoms: _459  and  _460
REMARK  195  A    between atoms: _463  and  _465
REMARK  196  A    between atoms: _465  and  _466
REMARK  197  A    between atoms: _465  and  _468
REMARK  198  A    between atoms: _471  and  _473
REMARK  199  A    between atoms: _473  and  _474
REMARK  200  A    between atoms: _473  and  _476
REMARK  201  A    between atoms: _476  and  _477
REMARK  202  A    between atoms: _481  and  _482
REMARK  203  A    between atoms: _487  and  _489
REMARK  204  A    between atoms: _489  and  _490
REMARK  205  A    between atoms: _489  and  _492
REMARK  206  A    between atoms: _492  and  _493
REMARK  207  A    between atoms: _497  and  _498
REMARK  208  A    between atoms: _503  and  _505
REMARK  209  A    between atoms: _505  and  _506
REMARK  210  A    between atoms: _505  and  _508
REMARK  211  A    between atoms: _511  and  _513
REMARK  212  A    between atoms: _513  and  _514
REMARK  213  A    between atoms: _513  and  _516
REMARK  214  A    between atoms: _516  and  _517
REMARK  215  A    between atoms: _522  and  _524
REMARK  216  A    between atoms: _524  and  _525
REMARK  217  A    between atoms: _524  and  _527
REMARK  218  A    between atoms: _527  and  _528
REMARK  219  A    between atoms: _531  and  _533
REMARK  220  A    between atoms: _533  and  _534
REMARK  221  A    between atoms: _533  and  _536
REMARK  222  A    between atoms: _536  and  _537
REMARK  223  A    between atoms: _540  and  _542
REMARK  224  A    between atoms: _542  and  _543
REMARK  225  A    between atoms: _545  and  _547
REMARK  226  A    between atoms: _547  and  _548
REMARK  227  A    between atoms: _547  and  _550
REMARK  228  A    between atoms: _550  and  _551
REMARK  229  A    between atoms: _551  and  _552
REMARK  230  A    between atoms: _552  and  _553
REMARK  231  A    between atoms: _562  and  _564
REMARK  232  A    between atoms: _564  and  _565
REMARK  233  A    between atoms: _564  and  _567
REMARK  234  A    between atoms: _567  and  _568
REMARK                            x       y       z     vdW  Elec       q    Type
REMARK                         _______ _______ _______ _____ _____    ______ ____
ROOT
ATOM      1  CA  ILE A   6      16.154  14.779  11.321  0.00  0.00    +0.149 C 
ENDROOT
BRANCH   1   2
ATOM      2  C   ILE A   6      15.852  13.291  11.315  0.00  0.00    +0.241 C 
ATOM      3  N   ILE A   7      16.668  12.512  12.018  0.00  0.00    -0.297 N 
ATOM      4  H   ILE A   7      17.548  12.909  12.404  0.00  0.00    +0.150 HD
ATOM      5  O   ILE A   6      14.871  12.886  10.681  0.00  0.00    -0.273 OA
BRANCH   3   6
ATOM      6  CA  ILE A   7      16.350  11.114  12.256  0.00  0.00    +0.149 C 
BRANCH   6   7
ATOM      7  C   ILE A   7      15.704  11.028  13.642  0.00  0.00    +0.241 C 
ATOM      8  O   ILE A   7      16.367  11.330  14.645  0.00  0.00    -0.273 OA
ATOM      9  N   GLY A   8      14.433  10.657  13.656  0.00  0.00    -0.295 N 
ATOM     10  H   GLY A   8      13.982  10.383  12.760  0.00  0.00    +0.150 HD
BRANCH   9  11
ATOM     11  CA  GLY A   8      13.652  10.619  14.864  0.00  0.00    +0.176 C 
BRANCH  11  12
ATOM     12  C   GLY A   8      13.581   9.243  15.495  0.00  0.00    +0.243 C 
ATOM     13  N   ARG A   9      12.874   9.176  16.632  0.00  0.00    -0.297 N 
ATOM     14  H   ARG A   9      12.327  10.002  16.947  0.00  0.00    +0.150 HD
ATOM     15  O   GLY A   8      14.147   8.243  15.033  0.00  0.00    -0.273 OA
BRANCH  13  16
ATOM     16  CA  ARG A   9      12.865   7.953  17.433  0.00  0.00    +0.149 C 
BRANCH  16  17
ATOM     17  C   ARG A   9      12.363   6.752  16.651  0.00  0.00    +0.241 C 
ATOM     18  O   ARG A   9      12.848   5.636  16.863  0.00  0.00    -0.273 OA
ATOM     19  N   ASP A  10      11.430   6.947  15.711  0.00  0.00    -0.298 N 
ATOM     20  H   ASP A  10      11.086   7.905  15.496  0.00  0.00    +0.150 HD
BRANCH  19  21
ATOM     21  CA  ASP A  10      10.903   5.786  14.992  0.00  0.00    +0.148 C 
BRANCH  21  22
ATOM     22  C   ASP A  10      11.967   4.990  14.253  0.00  0.00    +0.227 C 
ATOM     23  O   ASP A  10      11.775   3.774  14.091  0.00  0.00    -0.286 OA
ENDBRANCH  21  22
BRANCH  21  24
ATOM     24  CB  ASP A  10       9.783   6.290  14.097  0.00  0.00    +0.142 C 
BRANCH  24  25
ATOM     25  CG  ASP A  10       9.332   5.430  12.962  0.00  0.00    +0.367 C 
ATOM     26  OD2 ASP A  10       8.372   4.669  13.225  0.00  0.00    -0.246 OA
ATOM     27  OD1 ASP A  10       9.891   5.546  11.818  0.00  0.00    -0.246 OA
ENDBRANCH  24  25
ENDBRANCH  21  24
ENDBRANCH  19  21
ENDBRANCH  16  17
BRANCH  16  28
ATOM     28  CB  ARG A   9      12.054   8.152  18.711  0.00  0.00    +0.033 C 
BRANCH  28  29
ATOM     29  CG  ARG A   9      12.687   9.151  19.689  0.00  0.00    +0.045 C 
BRANCH  29  30
ATOM     30  CD  ARG A   9      11.923   9.252  21.002  0.00  0.00    +0.174 C 
BRANCH  30  31
ATOM     31  NE  ARG A   9      10.525   9.650  20.813  0.00  0.00    -0.265 N 
ATOM     32  CZ  ARG A   9       9.447   8.874  20.760  0.00  0.00    +0.342 C 
ATOM     33  NH2 ARG A   9       9.493   7.545  20.903  0.00  0.00    -0.292 N 
ATOM     34 HH21 ARG A   9      10.404   7.071  21.065  0.00  0.00    +0.255 HD
ATOM     35 HH22 ARG A   9       8.617   6.986  20.853  0.00  0.00    +0.255 HD
ATOM     36  NH1 ARG A   9       8.242   9.430  20.565  0.00  0.00    -0.292 N 
ATOM     37 HH11 ARG A   9       7.393   8.830  20.522  0.00  0.00    +0.255 HD
ATOM     38 HH12 ARG A   9       8.156  10.461  20.457  0.00  0.00    +0.255 HD
ATOM     39  HE  ARG A   9      10.355  10.670  20.707  0.00  0.00    +0.259 HD
ENDBRANCH  30  31
ENDBRANCH  29  30
ENDBRANCH  28  29
ENDBRANCH  16  28
ENDBRANCH  13  16
ENDBRANCH  11  12
ENDBRANCH   9  11
ENDBRANCH   6   7
BRANCH   6  40
ATOM     40  CB  ILE A   7      17.569  10.188  12.206  0.00  0.00    +0.027 C 
ATOM     41  CG2 ILE A   7      17.183   8.751  12.505  0.00  0.00    +0.002 C 
BRANCH  40  42
ATOM     42  CG1 ILE A   7      18.325  10.305  10.888  0.00  0.00    +0.002 C 
ATOM     43  CD1 ILE A   7      17.452   9.962   9.697  0.00  0.00    +0.000 C 
ENDBRANCH  40  42
ENDBRANCH   6  40
ENDBRANCH   3   6
ENDBRANCH   1   2
BRANCH   1  46
ATOM     44  C   ASN A   5      17.285  16.001   9.513  0.00  0.00    +0.241 C 
ATOM     45  O   ASN A   5      18.347  16.163  10.161  0.00  0.00    -0.273 OA
ATOM     46  N   ILE A   6      16.262  15.306   9.972  0.00  0.00    -0.297 N 
ATOM     47  H   ILE A   6      15.474  15.122   9.319  0.00  0.00    +0.150 HD
BRANCH  44  48
ATOM     48  CA  ASN A   5      17.165  16.649   8.134  0.00  0.00    +0.158 C 
BRANCH  48  51
ATOM     49  C   VAL A   4      16.861  18.948   8.793  0.00  0.00    +0.241 C 
ATOM     50  O   VAL A   4      15.726  18.681   9.200  0.00  0.00    -0.273 OA
ATOM     51  N   ASN A   5      17.617  18.042   8.204  0.00  0.00    -0.297 N 
ATOM     52  H   ASN A   5      18.531  18.315   7.790  0.00  0.00    +0.150 HD
BRANCH  49  53
ATOM     53  CA  VAL A   4      17.443  20.354   8.938  0.00  0.00    +0.149 C 
BRANCH  53  55
ATOM     54  C   PRO A   3      16.497  22.501   8.211  0.00  0.00    +0.242 C 
ATOM     55  N   VAL A   4      16.372  21.316   8.773  0.00  0.00    -0.297 N 
ATOM     56  H   VAL A   4      15.431  21.050   9.126  0.00  0.00    +0.150 HD
ATOM     57  O   PRO A   3      17.601  22.908   7.784  0.00  0.00    -0.273 OA
BRANCH  54  63
ATOM     58  C   THR A   2      13.595  21.922   7.280  0.00  0.00    +0.250 C 
ATOM     59  N   PRO A   3      13.998  22.753   8.251  0.00  0.00    -0.249 N 
ATOM     60  CD  PRO A   3      13.314  23.124   9.498  0.00  0.00    +0.063 C 
ATOM     61  CG  PRO A   3      14.118  24.269  10.052  0.00  0.00    -0.008 C 
ATOM     62  CB  PRO A   3      15.302  24.464   9.201  0.00  0.00    +0.057 C 
ATOM     63  CA  PRO A   3      15.283  23.428   8.076  0.00  0.00    +0.160 C 
ATOM     64  O   THR A   2      14.268  21.742   6.275  0.00  0.00    -0.273 OA
BRANCH  58  65
ATOM     65  CA  THR A   2      12.255  21.213   7.482  0.00  0.00    +0.176 C 
BRANCH  65  68
ATOM     66  C   PRO A   1      10.802  22.256   5.843  0.00  0.00    +0.239 C 
ATOM     67  O   PRO A   1      10.726  23.276   6.531  0.00  0.00    -0.274 OA
ATOM     68  N   THR A   2      11.504  21.208   6.249  0.00  0.00    -0.295 N 
ATOM     69  H   THR A   2      11.514  20.352   5.659  0.00  0.00    +0.150 HD
BRANCH  66  74
ATOM     70  N   PRO A   1       9.229  20.970   4.395  0.00  0.00    -0.210 NA
ATOM     71  CD  PRO A   1       7.817  21.384   4.526  0.00  0.00    +0.089 C 
ATOM     72  CG  PRO A   1       7.885  22.846   4.787  0.00  0.00    +0.021 C 
ATOM     73  CB  PRO A   1       9.184  23.293   4.182  0.00  0.00    +0.028 C 
ATOM     74  CA  PRO A   1      10.139  22.115   4.473  0.00  0.00    +0.149 C 
ENDBRANCH  66  74
ENDBRANCH  65  68
BRANCH  65  75
ATOM     75  CB  THR A   2      12.455  19.785   8.054  0.00  0.00    +0.137 C 
ATOM     76  CG2 THR A   2      13.164  18.866   7.099  0.00  0.00    +0.034 C 
BRANCH  75  77
ATOM     77  OG1 THR A   2      13.232  19.900   9.238  0.00  0.00    -0.382 OA
ATOM     78  HG1 THR A   2      14.106  20.310   9.019  0.00  0.00    +0.210 HD
ENDBRANCH  75  77
ENDBRANCH  65  75
ENDBRANCH  58  65
ENDBRANCH  54  63
ENDBRANCH  53  55
BRANCH  53  79
ATOM     79  CB  VAL A   4      18.119  20.459  10.321  0.00  0.00    +0.027 C 
ATOM     80  CG2 VAL A   4      17.094  20.308  11.441  0.00  0.00    +0.002 C 
ATOM     81  CG1 VAL A   4      18.890  21.757  10.463  0.00  0.00    +0.002 C 
ENDBRANCH  53  79
ENDBRANCH  49  53
ENDBRANCH  48  51
BRANCH  48  82
ATOM     82  CB  ASN A   5      17.983  15.837   7.148  0.00  0.00    +0.114 C 
BRANCH  82  83
ATOM     83  CG  ASN A   5      17.850  16.340   5.717  0.00  0.00    +0.222 C 
ATOM     84  OD1 ASN A   5      16.752  16.735   5.306  0.00  0.00    -0.275 OA
ATOM     85  ND2 ASN A   5      18.962  16.347   4.999  0.00  0.00    -0.329 N 
ATOM     86 HD21 ASN A   5      19.850  15.998   5.413  0.00  0.00    +0.145 HD
ATOM     87 HD22 ASN A   5      18.947  16.701   4.021  0.00  0.00    +0.145 HD
ENDBRANCH  82  83
ENDBRANCH  48  82
ENDBRANCH  44  48
ENDBRANCH   1  46
BRANCH   1  88
ATOM     88  CB  ILE A   6      15.001  15.511  12.066  0.00  0.00    +0.027 C 
ATOM     89  CG2 ILE A   6      14.612  14.812  13.360  0.00  0.00    +0.002 C 
BRANCH  88  90
ATOM     90  CG1 ILE A   6      15.311  17.003  12.247  0.00  0.00    +0.002 C 
ATOM     91  CD1 ILE A   6      14.063  17.814  12.526  0.00  0.00    +0.000 C 
ENDBRANCH  88  90
ENDBRANCH   1  88
TORSDOF 33
REMARK  Name = ../refined-set-2016/3vfb/3vfb_pocket.pdb
REMARK  234 active torsions:
REMARK  status: ('A' for Active; 'I' for Inactive)
REMARK    1  A    between atoms: _1  and  _3
REMARK    2  A    between atoms: _3  and  _4
REMARK    3  A    between atoms: _3  and  _6
REMARK    4  A    between atoms: _6  and  _7
REMARK    5  A    between atoms: _7  and  _8
REMARK    6  A    between atoms: _8  and  _9
REMARK    7  A    between atoms: _18  and  _20
REMARK    8  A    between atoms: _20  and  _21
REMARK    9  A    between atoms: _20  and  _23
REMARK   10  A    between atoms: _23  and  _24
REMARK   11  A    between atoms: _27  and  _29
REMARK   12  A    between atoms: _29  and  _30
REMARK   13  A    between atoms: _29  and  _32
REMARK   14  A    between atoms: _32  and  _33
REMARK   15  A    between atoms: _36  and  _38
REMARK   16  A    between atoms: _38  and  _39
REMARK   17  A    between atoms: _38  and  _41
REMARK   18  A    between atoms: _41  and  _42
REMARK   19  A    between atoms: _45  and  _47
REMARK   20  A    between atoms: _47  and  _48
REMARK   21  A    between atoms: _47  and  _50
REMARK   22  A    between atoms: _50  and  _51
REMARK   23  A    between atoms: _54  and  _56
REMARK   24  A    between atoms: _56  and  _57
REMARK   25  A    between atoms: _56  and  _59
REMARK   26  A    between atoms: _59  and  _60
REMARK   27  A    between atoms: _63  and  _65
REMARK   28  A    between atoms: _65  and  _66
REMARK   29  A    between atoms: _68  and  _70
REMARK   30  A    between atoms: _70  and  _71
REMARK   31  A    between atoms: _74  and  _76
REMARK   32  A    between atoms: _76  and  _77
REMARK   33  A    between atoms: _76  and  _79
REMARK   34  A    between atoms: _79  and  _80
REMARK   35  A    between atoms: _83  and  _85
REMARK   36  A    between atoms: _85  and  _86
REMARK   37  A    between atoms: _85  and  _88
REMARK   38  A    between atoms: _88  and  _89
REMARK   39  A    between atoms: _92  and  _94
REMARK   40  A    between atoms: _94  and  _95
REMARK   41  A    between atoms: _94  and  _97
REMARK   42  A    between atoms: _97  and  _98
REMARK   43  A    between atoms: _101  and  _103
REMARK   44  A    between atoms: _103  and  _104
REMARK   45  A    between atoms: _103  and  _106
REMARK   46  A    between atoms: _109  and  _111
REMARK   47  A    between atoms: _111  and  _112
REMARK   48  A    between atoms: _111  and  _114
REMARK   49  A    between atoms: _114  and  _115
REMARK   50  A    between atoms: _115  and  _116
REMARK   51  A    between atoms: _116  and  _117
REMARK   52  A    between atoms: _117  and  _118
REMARK   53  A    between atoms: _122  and  _124
REMARK   54  A    between atoms: _124  and  _125
REMARK   55  A    between atoms: _124  and  _127
REMARK   56  A    between atoms: _127  and  _128
REMARK   57  A    between atoms: _128  and  _129
REMARK   58  A    between atoms: _131  and  _133
REMARK   59  A    between atoms: _133  and  _134
REMARK   60  A    between atoms: _133  and  _136
REMARK   61  A    between atoms: _136  and  _137
REMARK   62  A    between atoms: _140  and  _142
REMARK   63  A    between atoms: _142  and  _143
REMARK   64  A    between atoms: _145  and  _147
REMARK   65  A    between atoms: _147  and  _148
REMARK   66  A    between atoms: _150  and  _152
REMARK   67  A    between atoms: _152  and  _153
REMARK   68  A    between atoms: _152  and  _155
REMARK   69  A    between atoms: _155  and  _156
REMARK   70  A    between atoms: _159  and  _161
REMARK   71  A    between atoms: _161  and  _162
REMARK   72  A    between atoms: _164  and  _166
REMARK   73  A    between atoms: _166  and  _167
REMARK   74  A    between atoms: _169  and  _171
REMARK   75  A    between atoms: _171  and  _172
REMARK   76  A    between atoms: _171  and  _174
REMARK   77  A    between atoms: _174  and  _175
REMARK   78  A    between atoms: _181  and  _183
REMARK   79  A    between atoms: _183  and  _184
REMARK   80  A    between atoms: _183  and  _186
REMARK   81  A    between atoms: _186  and  _187
REMARK   82  A    between atoms: _190  and  _192
REMARK   83  A    between atoms: _192  and  _193
REMARK   84  A    between atoms: _192  and  _195
REMARK   85  A    between atoms: _195  and  _196
REMARK   86  A    between atoms: _199  and  _201
REMARK   87  A    between atoms: _201  and  _202
REMARK   88  A    between atoms: _201  and  _204
REMARK   89  A    between atoms: _204  and  _205
REMARK   90  A    between atoms: _209  and  _210
REMARK   91  A    between atoms: _215  and  _217
REMARK   92  A    between atoms: _217  and  _218
REMARK   93  A    between atoms: _217  and  _220
REMARK   94  A    between atoms: _223  and  _225
REMARK   95  A    between atoms: _225  and  _226
REMARK   96  A    between atoms: _225  and  _228
REMARK   97  A    between atoms: _228  and  _229
REMARK   98  A    between atoms: _234  and  _236
REMARK   99  A    between atoms: _236  and  _237
REMARK  100  A    between atoms: _236  and  _239
REMARK  101  A    between atoms: _239  and  _240
REMARK  102  A    between atoms: _243  and  _245
REMARK  103  A    between atoms: _245  and  _246
REMARK  104  A    between atoms: _245  and  _248
REMARK  105  A    between atoms: _248  and  _249
REMARK  106  A    between atoms: _252  and  _254
REMARK  107  A    between atoms: _254  and  _255
REMARK  108  A    between atoms: _257  and  _259
REMARK  109  A    between atoms: _259  and  _260
REMARK  110  A    between atoms: _259  and  _262
REMARK  111  A    between atoms: _262  and  _263
REMARK  112  A    between atoms: _263  and  _264
REMARK  113  A    between atoms: _264  and  _265
REMARK  114  A    between atoms: _274  and  _276
REMARK  115  A    between atoms: _276  and  _277
REMARK  116  A    between atoms: _276  and  _279
REMARK  117  A    between atoms: _279  and  _280
REMARK  118  A    between atoms: _283  and  _285
REMARK  119  A    between atoms: _285  and  _286
REMARK  120  A    between atoms: _285  and  _288
REMARK  121  A    between atoms: _288  and  _289
REMARK  122  A    between atoms: _289  and  _290
REMARK  123  A    between atoms: _290  and  _291
REMARK  124  A    between atoms: _300  and  _302
REMARK  125  A    between atoms: _302  and  _303
REMARK  126  A    between atoms: _302  and  _305
REMARK  127  A    between atoms: _305  and  _306
REMARK  128  A    between atoms: _309  and  _311
REMARK  129  A    between atoms: _311  and  _312
REMARK  130  A    between atoms: _311  and  _314
REMARK  131  A    between atoms: _314  and  _315
REMARK  132  A    between atoms: _318  and  _320
REMARK  133  A    between atoms: _320  and  _321
REMARK  134  A    between atoms: _320  and  _323
REMARK  135  A    between atoms: _323  and  _324
REMARK  136  A    between atoms: _327  and  _329
REMARK  137  A    between atoms: _329  and  _330
REMARK  138  A    between atoms: _329  and  _332
REMARK  139  A    between atoms: _332  and  _333
REMARK  140  A    between atoms: _336  and  _338
REMARK  141  A    between atoms: _338  and  _339
REMARK  142  A    between atoms: _341  and  _343
REMARK  143  A    between atoms: _343  and  _344
REMARK  144  A    between atoms: _347  and  _349
REMARK  145  A    between atoms: _349  and  _350
REMARK  146  A    between atoms: _349  and  _352
REMARK  147  A    between atoms: _352  and  _353
REMARK  148  A    between atoms: _356  and  _358
REMARK  149  A    between atoms: _358  and  _359
REMARK  150  A    between atoms: _358  and  _361
REMARK  151  A    between atoms: _361  and  _362
REMARK  152  A    between atoms: _365  and  _367
REMARK  153  A    between atoms: _367  and  _368
REMARK  154  A    between atoms: _367  and  _370
REMARK  155  A    between atoms: _370  and  _371
REMARK  156  A    between atoms: _374  and  _376
REMARK  157  A    between atoms: _376  and  _377
REMARK  158  A    between atoms: _376  and  _379
REMARK  159  A    between atoms: _382  and  _384
REMARK  160  A    between atoms: _384  and  _385
REMARK  161  A    between atoms: _384  and  _387
REMARK  162  A    between atoms: _387  and  _388
REMARK  163  A    between atoms: _388  and  _389
REMARK  164  A    between atoms: _389  and  _390
REMARK  165  A    between atoms: _390  and  _391
REMARK  166  A    between atoms: _395  and  _397
REMARK  167  A    between atoms: _397  and  _398
REMARK  168  A    between atoms: _397  and  _400
REMARK  169  A    between atoms: _400  and  _401
REMARK  170  A    between atoms: _401  and  _402
REMARK  171  A    between atoms: _404  and  _406
REMARK  172  A    between atoms: _406  and  _407
REMARK  173  A    between atoms: _406  and  _409
REMARK  174  A    between atoms: _409  and  _410
REMARK  175  A    between atoms: _413  and  _415
REMARK  176  A    between atoms: _415  and  _416
REMARK  177  A    between atoms: _418  and  _420
REMARK  178  A    between atoms: _420  and  _421
REMARK  179  A    between atoms: _423  and  _425
REMARK  180  A    between atoms: _425  and  _426
REMARK  181  A    between atoms: _425  and  _428
REMARK  182  A    between atoms: _428  and  _429
REMARK  183  A    between atoms: _432  and  _434
REMARK  184  A    between atoms: _434  and  _435
REMARK  185  A    between atoms: _437  and  _439
REMARK  186  A    between atoms: _439  and  _440
REMARK  187  A    between atoms: _442  and  _444
REMARK  188  A    between atoms: _444  and  _445
REMARK  189  A    between atoms: _444  and  _447
REMARK  190  A    between atoms: _447  and  _448
REMARK  191  A    between atoms: _454  and  _456
REMARK  192  A    between atoms: _456  and  _457
REMARK  193  A    between atoms: _456  and  _459
REMARK  194  A    between atoms: _459  and  _460
REMARK  195  A    between atoms: _463  and  _465
REMARK  196  A    between atoms: _465  and  _466
REMARK  197  A    between atoms: _465  and  _468
REMARK  198  A    between atoms: _471  and  _473
REMARK  199  A    between atoms: _473  and  _474
REMARK  200  A    between atoms: _473  and  _476
REMARK  201  A    between atoms: _476  and  _477
REMARK  202  A    between atoms: _481  and  _482
REMARK  203  A    between atoms: _487  and  _489
REMARK  204  A    between atoms: _489  and  _490
REMARK  205  A    between atoms: _489  and  _492
REMARK  206  A    between atoms: _492  and  _493
REMARK  207  A    between atoms: _497  and  _498
REMARK  208  A    between atoms: _503  and  _505
REMARK  209  A    between atoms: _505  and  _506
REMARK  210  A    between atoms: _505  and  _508
REMARK  211  A    between atoms: _511  and  _513
REMARK  212  A    between atoms: _513  and  _514
REMARK  213  A    between atoms: _513  and  _516
REMARK  214  A    between atoms: _516  and  _517
REMARK  215  A    between atoms: _522  and  _524
REMARK  216  A    between atoms: _524  and  _525
REMARK  217  A    between atoms: _524  and  _527
REMARK  218  A    between atoms: _527  and  _528
REMARK  219  A    between atoms: _531  and  _533
REMARK  220  A    between atoms: _533  and  _534
REMARK  221  A    between atoms: _533  and  _536
REMARK  222  A    between atoms: _536  and  _537
REMARK  223  A    between atoms: _540  and  _542
REMARK  224  A    between atoms: _542  and  _543
REMARK  225  A    between atoms: _545  and  _547
REMARK  226  A    between atoms: _547  and  _548
REMARK  227  A    between atoms: _547  and  _550
REMARK  228  A    between atoms: _550  and  _551
REMARK  229  A    between atoms: _551  and  _552
REMARK  230  A    between atoms: _552  and  _553
REMARK  231  A    between atoms: _562  and  _564
REMARK  232  A    between atoms: _564  and  _565
REMARK  233  A    between atoms: _564  and  _567
REMARK  234  A    between atoms: _567  and  _568
REMARK                            x       y       z     vdW  Elec       q    Type
REMARK                         _______ _______ _______ _____ _____    ______ ____
ROOT
ATOM      1  O   HOH     1      11.266  22.565  16.745  0.00  0.00    +0.000 OA
ENDROOT
TORSDOF 0
REMARK  Name = ../refined-set-2016/3vfb/3vfb_pocket.pdb
REMARK  234 active torsions:
REMARK  status: ('A' for Active; 'I' for Inactive)
REMARK    1  A    between atoms: _1  and  _3
REMARK    2  A    between atoms: _3  and  _4
REMARK    3  A    between atoms: _3  and  _6
REMARK    4  A    between atoms: _6  and  _7
REMARK    5  A    between atoms: _7  and  _8
REMARK    6  A    between atoms: _8  and  _9
REMARK    7  A    between atoms: _18  and  _20
REMARK    8  A    between atoms: _20  and  _21
REMARK    9  A    between atoms: _20  and  _23
REMARK   10  A    between atoms: _23  and  _24
REMARK   11  A    between atoms: _27  and  _29
REMARK   12  A    between atoms: _29  and  _30
REMARK   13  A    between atoms: _29  and  _32
REMARK   14  A    between atoms: _32  and  _33
REMARK   15  A    between atoms: _36  and  _38
REMARK   16  A    between atoms: _38  and  _39
REMARK   17  A    between atoms: _38  and  _41
REMARK   18  A    between atoms: _41  and  _42
REMARK   19  A    between atoms: _45  and  _47
REMARK   20  A    between atoms: _47  and  _48
REMARK   21  A    between atoms: _47  and  _50
REMARK   22  A    between atoms: _50  and  _51
REMARK   23  A    between atoms: _54  and  _56
REMARK   24  A    between atoms: _56  and  _57
REMARK   25  A    between atoms: _56  and  _59
REMARK   26  A    between atoms: _59  and  _60
REMARK   27  A    between atoms: _63  and  _65
REMARK   28  A    between atoms: _65  and  _66
REMARK   29  A    between atoms: _68  and  _70
REMARK   30  A    between atoms: _70  and  _71
REMARK   31  A    between atoms: _74  and  _76
REMARK   32  A    between atoms: _76  and  _77
REMARK   33  A    between atoms: _76  and  _79
REMARK   34  A    between atoms: _79  and  _80
REMARK   35  A    between atoms: _83  and  _85
REMARK   36  A    between atoms: _85  and  _86
REMARK   37  A    between atoms: _85  and  _88
REMARK   38  A    between atoms: _88  and  _89
REMARK   39  A    between atoms: _92  and  _94
REMARK   40  A    between atoms: _94  and  _95
REMARK   41  A    between atoms: _94  and  _97
REMARK   42  A    between atoms: _97  and  _98
REMARK   43  A    between atoms: _101  and  _103
REMARK   44  A    between atoms: _103  and  _104
REMARK   45  A    between atoms: _103  and  _106
REMARK   46  A    between atoms: _109  and  _111
REMARK   47  A    between atoms: _111  and  _112
REMARK   48  A    between atoms: _111  and  _114
REMARK   49  A    between atoms: _114  and  _115
REMARK   50  A    between atoms: _115  and  _116
REMARK   51  A    between atoms: _116  and  _117
REMARK   52  A    between atoms: _117  and  _118
REMARK   53  A    between atoms: _122  and  _124
REMARK   54  A    between atoms: _124  and  _125
REMARK   55  A    between atoms: _124  and  _127
REMARK   56  A    between atoms: _127  and  _128
REMARK   57  A    between atoms: _128  and  _129
REMARK   58  A    between atoms: _131  and  _133
REMARK   59  A    between atoms: _133  and  _134
REMARK   60  A    between atoms: _133  and  _136
REMARK   61  A    between atoms: _136  and  _137
REMARK   62  A    between atoms: _140  and  _142
REMARK   63  A    between atoms: _142  and  _143
REMARK   64  A    between atoms: _145  and  _147
REMARK   65  A    between atoms: _147  and  _148
REMARK   66  A    between atoms: _150  and  _152
REMARK   67  A    between atoms: _152  and  _153
REMARK   68  A    between atoms: _152  and  _155
REMARK   69  A    between atoms: _155  and  _156
REMARK   70  A    between atoms: _159  and  _161
REMARK   71  A    between atoms: _161  and  _162
REMARK   72  A    between atoms: _164  and  _166
REMARK   73  A    between atoms: _166  and  _167
REMARK   74  A    between atoms: _169  and  _171
REMARK   75  A    between atoms: _171  and  _172
REMARK   76  A    between atoms: _171  and  _174
REMARK   77  A    between atoms: _174  and  _175
REMARK   78  A    between atoms: _181  and  _183
REMARK   79  A    between atoms: _183  and  _184
REMARK   80  A    between atoms: _183  and  _186
REMARK   81  A    between atoms: _186  and  _187
REMARK   82  A    between atoms: _190  and  _192
REMARK   83  A    between atoms: _192  and  _193
REMARK   84  A    between atoms: _192  and  _195
REMARK   85  A    between atoms: _195  and  _196
REMARK   86  A    between atoms: _199  and  _201
REMARK   87  A    between atoms: _201  and  _202
REMARK   88  A    between atoms: _201  and  _204
REMARK   89  A    between atoms: _204  and  _205
REMARK   90  A    between atoms: _209  and  _210
REMARK   91  A    between atoms: _215  and  _217
REMARK   92  A    between atoms: _217  and  _218
REMARK   93  A    between atoms: _217  and  _220
REMARK   94  A    between atoms: _223  and  _225
REMARK   95  A    between atoms: _225  and  _226
REMARK   96  A    between atoms: _225  and  _228
REMARK   97  A    between atoms: _228  and  _229
REMARK   98  A    between atoms: _234  and  _236
REMARK   99  A    between atoms: _236  and  _237
REMARK  100  A    between atoms: _236  and  _239
REMARK  101  A    between atoms: _239  and  _240
REMARK  102  A    between atoms: _243  and  _245
REMARK  103  A    between atoms: _245  and  _246
REMARK  104  A    between atoms: _245  and  _248
REMARK  105  A    between atoms: _248  and  _249
REMARK  106  A    between atoms: _252  and  _254
REMARK  107  A    between atoms: _254  and  _255
REMARK  108  A    between atoms: _257  and  _259
REMARK  109  A    between atoms: _259  and  _260
REMARK  110  A    between atoms: _259  and  _262
REMARK  111  A    between atoms: _262  and  _263
REMARK  112  A    between atoms: _263  and  _264
REMARK  113  A    between atoms: _264  and  _265
REMARK  114  A    between atoms: _274  and  _276
REMARK  115  A    between atoms: _276  and  _277
REMARK  116  A    between atoms: _276  and  _279
REMARK  117  A    between atoms: _279  and  _280
REMARK  118  A    between atoms: _283  and  _285
REMARK  119  A    between atoms: _285  and  _286
REMARK  120  A    between atoms: _285  and  _288
REMARK  121  A    between atoms: _288  and  _289
REMARK  122  A    between atoms: _289  and  _290
REMARK  123  A    between atoms: _290  and  _291
REMARK  124  A    between atoms: _300  and  _302
REMARK  125  A    between atoms: _302  and  _303
REMARK  126  A    between atoms: _302  and  _305
REMARK  127  A    between atoms: _305  and  _306
REMARK  128  A    between atoms: _309  and  _311
REMARK  129  A    between atoms: _311  and  _312
REMARK  130  A    between atoms: _311  and  _314
REMARK  131  A    between atoms: _314  and  _315
REMARK  132  A    between atoms: _318  and  _320
REMARK  133  A    between atoms: _320  and  _321
REMARK  134  A    between atoms: _320  and  _323
REMARK  135  A    between atoms: _323  and  _324
REMARK  136  A    between atoms: _327  and  _329
REMARK  137  A    between atoms: _329  and  _330
REMARK  138  A    between atoms: _329  and  _332
REMARK  139  A    between atoms: _332  and  _333
REMARK  140  A    between atoms: _336  and  _338
REMARK  141  A    between atoms: _338  and  _339
REMARK  142  A    between atoms: _341  and  _343
REMARK  143  A    between atoms: _343  and  _344
REMARK  144  A    between atoms: _347  and  _349
REMARK  145  A    between atoms: _349  and  _350
REMARK  146  A    between atoms: _349  and  _352
REMARK  147  A    between atoms: _352  and  _353
REMARK  148  A    between atoms: _356  and  _358
REMARK  149  A    between atoms: _358  and  _359
REMARK  150  A    between atoms: _358  and  _361
REMARK  151  A    between atoms: _361  and  _362
REMARK  152  A    between atoms: _365  and  _367
REMARK  153  A    between atoms: _367  and  _368
REMARK  154  A    between atoms: _367  and  _370
REMARK  155  A    between atoms: _370  and  _371
REMARK  156  A    between atoms: _374  and  _376
REMARK  157  A    between atoms: _376  and  _377
REMARK  158  A    between atoms: _376  and  _379
REMARK  159  A    between atoms: _382  and  _384
REMARK  160  A    between atoms: _384  and  _385
REMARK  161  A    between atoms: _384  and  _387
REMARK  162  A    between atoms: _387  and  _388
REMARK  163  A    between atoms: _388  and  _389
REMARK  164  A    between atoms: _389  and  _390
REMARK  165  A    between atoms: _390  and  _391
REMARK  166  A    between atoms: _395  and  _397
REMARK  167  A    between atoms: _397  and  _398
REMARK  168  A    between atoms: _397  and  _400
REMARK  169  A    between atoms: _400  and  _401
REMARK  170  A    between atoms: _401  and  _402
REMARK  171  A    between atoms: _404  and  _406
REMARK  172  A    between atoms: _406  and  _407
REMARK  173  A    between atoms: _406  and  _409
REMARK  174  A    between atoms: _409  and  _410
REMARK  175  A    between atoms: _413  and  _415
REMARK  176  A    between atoms: _415  and  _416
REMARK  177  A    between atoms: _418  and  _420
REMARK  178  A    between atoms: _420  and  _421
REMARK  179  A    between atoms: _423  and  _425
REMARK  180  A    between atoms: _425  and  _426
REMARK  181  A    between atoms: _425  and  _428
REMARK  182  A    between atoms: _428  and  _429
REMARK  183  A    between atoms: _432  and  _434
REMARK  184  A    between atoms: _434  and  _435
REMARK  185  A    between atoms: _437  and  _439
REMARK  186  A    between atoms: _439  and  _440
REMARK  187  A    between atoms: _442  and  _444
REMARK  188  A    between atoms: _444  and  _445
REMARK  189  A    between atoms: _444  and  _447
REMARK  190  A    between atoms: _447  and  _448
REMARK  191  A    between atoms: _454  and  _456
REMARK  192  A    between atoms: _456  and  _457
REMARK  193  A    between atoms: _456  and  _459
REMARK  194  A    between atoms: _459  and  _460
REMARK  195  A    between atoms: _463  and  _465
REMARK  196  A    between atoms: _465  and  _466
REMARK  197  A    between atoms: _465  and  _468
REMARK  198  A    between atoms: _471  and  _473
REMARK  199  A    between atoms: _473  and  _474
REMARK  200  A    between atoms: _473  and  _476
REMARK  201  A    between atoms: _476  and  _477
REMARK  202  A    between atoms: _481  and  _482
REMARK  203  A    between atoms: _487  and  _489
REMARK  204  A    between atoms: _489  and  _490
REMARK  205  A    between atoms: _489  and  _492
REMARK  206  A    between atoms: _492  and  _493
REMARK  207  A    between atoms: _497  and  _498
REMARK  208  A    between atoms: _503  and  _505
REMARK  209  A    between atoms: _505  and  _506
REMARK  210  A    between atoms: _505  and  _508
REMARK  211  A    between atoms: _511  and  _513
REMARK  212  A    between atoms: _513  and  _514
REMARK  213  A    between atoms: _513  and  _516
REMARK  214  A    between atoms: _516  and  _517
REMARK  215  A    between atoms: _522  and  _524
REMARK  216  A    between atoms: _524  and  _525
REMARK  217  A    between atoms: _524  and  _527
REMARK  218  A    between atoms: _527  and  _528
REMARK  219  A    between atoms: _531  and  _533
REMARK  220  A    between atoms: _533  and  _534
REMARK  221  A    between atoms: _533  and  _536
REMARK  222  A    between atoms: _536  and  _537
REMARK  223  A    between atoms: _540  and  _542
REMARK  224  A    between atoms: _542  and  _543
REMARK  225  A    between atoms: _545  and  _547
REMARK  226  A    between atoms: _547  and  _548
REMARK  227  A    between atoms: _547  and  _550
REMARK  228  A    between atoms: _550  and  _551
REMARK  229  A    between atoms: _551  and  _552
REMARK  230  A    between atoms: _552  and  _553
REMARK  231  A    between atoms: _562  and  _564
REMARK  232  A    between atoms: _564  and  _565
REMARK  233  A    between atoms: _564  and  _567
REMARK  234  A    between atoms: _567  and  _568
REMARK                            x       y       z     vdW  Elec       q    Type
REMARK                         _______ _______ _______ _____ _____    ______ ____
ROOT
ATOM      1  O   HOH     1      21.859  19.042  18.113  0.00  0.00    +0.000 OA
ENDROOT
TORSDOF 0
REMARK  Name = ../refined-set-2016/3vfb/3vfb_pocket.pdb
REMARK  234 active torsions:
REMARK  status: ('A' for Active; 'I' for Inactive)
REMARK    1  A    between atoms: _1  and  _3
REMARK    2  A    between atoms: _3  and  _4
REMARK    3  A    between atoms: _3  and  _6
REMARK    4  A    between atoms: _6  and  _7
REMARK    5  A    between atoms: _7  and  _8
REMARK    6  A    between atoms: _8  and  _9
REMARK    7  A    between atoms: _18  and  _20
REMARK    8  A    between atoms: _20  and  _21
REMARK    9  A    between atoms: _20  and  _23
REMARK   10  A    between atoms: _23  and  _24
REMARK   11  A    between atoms: _27  and  _29
REMARK   12  A    between atoms: _29  and  _30
REMARK   13  A    between atoms: _29  and  _32
REMARK   14  A    between atoms: _32  and  _33
REMARK   15  A    between atoms: _36  and  _38
REMARK   16  A    between atoms: _38  and  _39
REMARK   17  A    between atoms: _38  and  _41
REMARK   18  A    between atoms: _41  and  _42
REMARK   19  A    between atoms: _45  and  _47
REMARK   20  A    between atoms: _47  and  _48
REMARK   21  A    between atoms: _47  and  _50
REMARK   22  A    between atoms: _50  and  _51
REMARK   23  A    between atoms: _54  and  _56
REMARK   24  A    between atoms: _56  and  _57
REMARK   25  A    between atoms: _56  and  _59
REMARK   26  A    between atoms: _59  and  _60
REMARK   27  A    between atoms: _63  and  _65
REMARK   28  A    between atoms: _65  and  _66
REMARK   29  A    between atoms: _68  and  _70
REMARK   30  A    between atoms: _70  and  _71
REMARK   31  A    between atoms: _74  and  _76
REMARK   32  A    between atoms: _76  and  _77
REMARK   33  A    between atoms: _76  and  _79
REMARK   34  A    between atoms: _79  and  _80
REMARK   35  A    between atoms: _83  and  _85
REMARK   36  A    between atoms: _85  and  _86
REMARK   37  A    between atoms: _85  and  _88
REMARK   38  A    between atoms: _88  and  _89
REMARK   39  A    between atoms: _92  and  _94
REMARK   40  A    between atoms: _94  and  _95
REMARK   41  A    between atoms: _94  and  _97
REMARK   42  A    between atoms: _97  and  _98
REMARK   43  A    between atoms: _101  and  _103
REMARK   44  A    between atoms: _103  and  _104
REMARK   45  A    between atoms: _103  and  _106
REMARK   46  A    between atoms: _109  and  _111
REMARK   47  A    between atoms: _111  and  _112
REMARK   48  A    between atoms: _111  and  _114
REMARK   49  A    between atoms: _114  and  _115
REMARK   50  A    between atoms: _115  and  _116
REMARK   51  A    between atoms: _116  and  _117
REMARK   52  A    between atoms: _117  and  _118
REMARK   53  A    between atoms: _122  and  _124
REMARK   54  A    between atoms: _124  and  _125
REMARK   55  A    between atoms: _124  and  _127
REMARK   56  A    between atoms: _127  and  _128
REMARK   57  A    between atoms: _128  and  _129
REMARK   58  A    between atoms: _131  and  _133
REMARK   59  A    between atoms: _133  and  _134
REMARK   60  A    between atoms: _133  and  _136
REMARK   61  A    between atoms: _136  and  _137
REMARK   62  A    between atoms: _140  and  _142
REMARK   63  A    between atoms: _142  and  _143
REMARK   64  A    between atoms: _145  and  _147
REMARK   65  A    between atoms: _147  and  _148
REMARK   66  A    between atoms: _150  and  _152
REMARK   67  A    between atoms: _152  and  _153
REMARK   68  A    between atoms: _152  and  _155
REMARK   69  A    between atoms: _155  and  _156
REMARK   70  A    between atoms: _159  and  _161
REMARK   71  A    between atoms: _161  and  _162
REMARK   72  A    between atoms: _164  and  _166
REMARK   73  A    between atoms: _166  and  _167
REMARK   74  A    between atoms: _169  and  _171
REMARK   75  A    between atoms: _171  and  _172
REMARK   76  A    between atoms: _171  and  _174
REMARK   77  A    between atoms: _174  and  _175
REMARK   78  A    between atoms: _181  and  _183
REMARK   79  A    between atoms: _183  and  _184
REMARK   80  A    between atoms: _183  and  _186
REMARK   81  A    between atoms: _186  and  _187
REMARK   82  A    between atoms: _190  and  _192
REMARK   83  A    between atoms: _192  and  _193
REMARK   84  A    between atoms: _192  and  _195
REMARK   85  A    between atoms: _195  and  _196
REMARK   86  A    between atoms: _199  and  _201
REMARK   87  A    between atoms: _201  and  _202
REMARK   88  A    between atoms: _201  and  _204
REMARK   89  A    between atoms: _204  and  _205
REMARK   90  A    between atoms: _209  and  _210
REMARK   91  A    between atoms: _215  and  _217
REMARK   92  A    between atoms: _217  and  _218
REMARK   93  A    between atoms: _217  and  _220
REMARK   94  A    between atoms: _223  and  _225
REMARK   95  A    between atoms: _225  and  _226
REMARK   96  A    between atoms: _225  and  _228
REMARK   97  A    between atoms: _228  and  _229
REMARK   98  A    between atoms: _234  and  _236
REMARK   99  A    between atoms: _236  and  _237
REMARK  100  A    between atoms: _236  and  _239
REMARK  101  A    between atoms: _239  and  _240
REMARK  102  A    between atoms: _243  and  _245
REMARK  103  A    between atoms: _245  and  _246
REMARK  104  A    between atoms: _245  and  _248
REMARK  105  A    between atoms: _248  and  _249
REMARK  106  A    between atoms: _252  and  _254
REMARK  107  A    between atoms: _254  and  _255
REMARK  108  A    between atoms: _257  and  _259
REMARK  109  A    between atoms: _259  and  _260
REMARK  110  A    between atoms: _259  and  _262
REMARK  111  A    between atoms: _262  and  _263
REMARK  112  A    between atoms: _263  and  _264
REMARK  113  A    between atoms: _264  and  _265
REMARK  114  A    between atoms: _274  and  _276
REMARK  115  A    between atoms: _276  and  _277
REMARK  116  A    between atoms: _276  and  _279
REMARK  117  A    between atoms: _279  and  _280
REMARK  118  A    between atoms: _283  and  _285
REMARK  119  A    between atoms: _285  and  _286
REMARK  120  A    between atoms: _285  and  _288
REMARK  121  A    between atoms: _288  and  _289
REMARK  122  A    between atoms: _289  and  _290
REMARK  123  A    between atoms: _290  and  _291
REMARK  124  A    between atoms: _300  and  _302
REMARK  125  A    between atoms: _302  and  _303
REMARK  126  A    between atoms: _302  and  _305
REMARK  127  A    between atoms: _305  and  _306
REMARK  128  A    between atoms: _309  and  _311
REMARK  129  A    between atoms: _311  and  _312
REMARK  130  A    between atoms: _311  and  _314
REMARK  131  A    between atoms: _314  and  _315
REMARK  132  A    between atoms: _318  and  _320
REMARK  133  A    between atoms: _320  and  _321
REMARK  134  A    between atoms: _320  and  _323
REMARK  135  A    between atoms: _323  and  _324
REMARK  136  A    between atoms: _327  and  _329
REMARK  137  A    between atoms: _329  and  _330
REMARK  138  A    between atoms: _329  and  _332
REMARK  139  A    between atoms: _332  and  _333
REMARK  140  A    between atoms: _336  and  _338
REMARK  141  A    between atoms: _338  and  _339
REMARK  142  A    between atoms: _341  and  _343
REMARK  143  A    between atoms: _343  and  _344
REMARK  144  A    between atoms: _347  and  _349
REMARK  145  A    between atoms: _349  and  _350
REMARK  146  A    between atoms: _349  and  _352
REMARK  147  A    between atoms: _352  and  _353
REMARK  148  A    between atoms: _356  and  _358
REMARK  149  A    between atoms: _358  and  _359
REMARK  150  A    between atoms: _358  and  _361
REMARK  151  A    between atoms: _361  and  _362
REMARK  152  A    between atoms: _365  and  _367
REMARK  153  A    between atoms: _367  and  _368
REMARK  154  A    between atoms: _367  and  _370
REMARK  155  A    between atoms: _370  and  _371
REMARK  156  A    between atoms: _374  and  _376
REMARK  157  A    between atoms: _376  and  _377
REMARK  158  A    between atoms: _376  and  _379
REMARK  159  A    between atoms: _382  and  _384
REMARK  160  A    between atoms: _384  and  _385
REMARK  161  A    between atoms: _384  and  _387
REMARK  162  A    between atoms: _387  and  _388
REMARK  163  A    between atoms: _388  and  _389
REMARK  164  A    between atoms: _389  and  _390
REMARK  165  A    between atoms: _390  and  _391
REMARK  166  A    between atoms: _395  and  _397
REMARK  167  A    between atoms: _397  and  _398
REMARK  168  A    between atoms: _397  and  _400
REMARK  169  A    between atoms: _400  and  _401
REMARK  170  A    between atoms: _401  and  _402
REMARK  171  A    between atoms: _404  and  _406
REMARK  172  A    between atoms: _406  and  _407
REMARK  173  A    between atoms: _406  and  _409
REMARK  174  A    between atoms: _409  and  _410
REMARK  175  A    between atoms: _413  and  _415
REMARK  176  A    between atoms: _415  and  _416
REMARK  177  A    between atoms: _418  and  _420
REMARK  178  A    between atoms: _420  and  _421
REMARK  179  A    between atoms: _423  and  _425
REMARK  180  A    between atoms: _425  and  _426
REMARK  181  A    between atoms: _425  and  _428
REMARK  182  A    between atoms: _428  and  _429
REMARK  183  A    between atoms: _432  and  _434
REMARK  184  A    between atoms: _434  and  _435
REMARK  185  A    between atoms: _437  and  _439
REMARK  186  A    between atoms: _439  and  _440
REMARK  187  A    between atoms: _442  and  _444
REMARK  188  A    between atoms: _444  and  _445
REMARK  189  A    between atoms: _444  and  _447
REMARK  190  A    between atoms: _447  and  _448
REMARK  191  A    between atoms: _454  and  _456
REMARK  192  A    between atoms: _456  and  _457
REMARK  193  A    between atoms: _456  and  _459
REMARK  194  A    between atoms: _459  and  _460
REMARK  195  A    between atoms: _463  and  _465
REMARK  196  A    between atoms: _465  and  _466
REMARK  197  A    between atoms: _465  and  _468
REMARK  198  A    between atoms: _471  and  _473
REMARK  199  A    between atoms: _473  and  _474
REMARK  200  A    between atoms: _473  and  _476
REMARK  201  A    between atoms: _476  and  _477
REMARK  202  A    between atoms: _481  and  _482
REMARK  203  A    between atoms: _487  and  _489
REMARK  204  A    between atoms: _489  and  _490
REMARK  205  A    between atoms: _489  and  _492
REMARK  206  A    between atoms: _492  and  _493
REMARK  207  A    between atoms: _497  and  _498
REMARK  208  A    between atoms: _503  and  _505
REMARK  209  A    between atoms: _505  and  _506
REMARK  210  A    between atoms: _505  and  _508
REMARK  211  A    between atoms: _511  and  _513
REMARK  212  A    between atoms: _513  and  _514
REMARK  213  A    between atoms: _513  and  _516
REMARK  214  A    between atoms: _516  and  _517
REMARK  215  A    between atoms: _522  and  _524
REMARK  216  A    between atoms: _524  and  _525
REMARK  217  A    between atoms: _524  and  _527
REMARK  218  A    between atoms: _527  and  _528
REMARK  219  A    between atoms: _531  and  _533
REMARK  220  A    between atoms: _533  and  _534
REMARK  221  A    between atoms: _533  and  _536
REMARK  222  A    between atoms: _536  and  _537
REMARK  223  A    between atoms: _540  and  _542
REMARK  224  A    between atoms: _542  and  _543
REMARK  225  A    between atoms: _545  and  _547
REMARK  226  A    between atoms: _547  and  _548
REMARK  227  A    between atoms: _547  and  _550
REMARK  228  A    between atoms: _550  and  _551
REMARK  229  A    between atoms: _551  and  _552
REMARK  230  A    between atoms: _552  and  _553
REMARK  231  A    between atoms: _562  and  _564
REMARK  232  A    between atoms: _564  and  _565
REMARK  233  A    between atoms: _564  and  _567
REMARK  234  A    between atoms: _567  and  _568
REMARK                            x       y       z     vdW  Elec       q    Type
REMARK                         _______ _______ _______ _____ _____    ______ ____
ROOT
ATOM      1  O   HOH     1      20.510  20.910  16.629  0.00  0.00    +0.000 OA
ENDROOT
TORSDOF 0
REMARK  Name = ../refined-set-2016/3vfb/3vfb_pocket.pdb
REMARK  234 active torsions:
REMARK  status: ('A' for Active; 'I' for Inactive)
REMARK    1  A    between atoms: _1  and  _3
REMARK    2  A    between atoms: _3  and  _4
REMARK    3  A    between atoms: _3  and  _6
REMARK    4  A    between atoms: _6  and  _7
REMARK    5  A    between atoms: _7  and  _8
REMARK    6  A    between atoms: _8  and  _9
REMARK    7  A    between atoms: _18  and  _20
REMARK    8  A    between atoms: _20  and  _21
REMARK    9  A    between atoms: _20  and  _23
REMARK   10  A    between atoms: _23  and  _24
REMARK   11  A    between atoms: _27  and  _29
REMARK   12  A    between atoms: _29  and  _30
REMARK   13  A    between atoms: _29  and  _32
REMARK   14  A    between atoms: _32  and  _33
REMARK   15  A    between atoms: _36  and  _38
REMARK   16  A    between atoms: _38  and  _39
REMARK   17  A    between atoms: _38  and  _41
REMARK   18  A    between atoms: _41  and  _42
REMARK   19  A    between atoms: _45  and  _47
REMARK   20  A    between atoms: _47  and  _48
REMARK   21  A    between atoms: _47  and  _50
REMARK   22  A    between atoms: _50  and  _51
REMARK   23  A    between atoms: _54  and  _56
REMARK   24  A    between atoms: _56  and  _57
REMARK   25  A    between atoms: _56  and  _59
REMARK   26  A    between atoms: _59  and  _60
REMARK   27  A    between atoms: _63  and  _65
REMARK   28  A    between atoms: _65  and  _66
REMARK   29  A    between atoms: _68  and  _70
REMARK   30  A    between atoms: _70  and  _71
REMARK   31  A    between atoms: _74  and  _76
REMARK   32  A    between atoms: _76  and  _77
REMARK   33  A    between atoms: _76  and  _79
REMARK   34  A    between atoms: _79  and  _80
REMARK   35  A    between atoms: _83  and  _85
REMARK   36  A    between atoms: _85  and  _86
REMARK   37  A    between atoms: _85  and  _88
REMARK   38  A    between atoms: _88  and  _89
REMARK   39  A    between atoms: _92  and  _94
REMARK   40  A    between atoms: _94  and  _95
REMARK   41  A    between atoms: _94  and  _97
REMARK   42  A    between atoms: _97  and  _98
REMARK   43  A    between atoms: _101  and  _103
REMARK   44  A    between atoms: _103  and  _104
REMARK   45  A    between atoms: _103  and  _106
REMARK   46  A    between atoms: _109  and  _111
REMARK   47  A    between atoms: _111  and  _112
REMARK   48  A    between atoms: _111  and  _114
REMARK   49  A    between atoms: _114  and  _115
REMARK   50  A    between atoms: _115  and  _116
REMARK   51  A    between atoms: _116  and  _117
REMARK   52  A    between atoms: _117  and  _118
REMARK   53  A    between atoms: _122  and  _124
REMARK   54  A    between atoms: _124  and  _125
REMARK   55  A    between atoms: _124  and  _127
REMARK   56  A    between atoms: _127  and  _128
REMARK   57  A    between atoms: _128  and  _129
REMARK   58  A    between atoms: _131  and  _133
REMARK   59  A    between atoms: _133  and  _134
REMARK   60  A    between atoms: _133  and  _136
REMARK   61  A    between atoms: _136  and  _137
REMARK   62  A    between atoms: _140  and  _142
REMARK   63  A    between atoms: _142  and  _143
REMARK   64  A    between atoms: _145  and  _147
REMARK   65  A    between atoms: _147  and  _148
REMARK   66  A    between atoms: _150  and  _152
REMARK   67  A    between atoms: _152  and  _153
REMARK   68  A    between atoms: _152  and  _155
REMARK   69  A    between atoms: _155  and  _156
REMARK   70  A    between atoms: _159  and  _161
REMARK   71  A    between atoms: _161  and  _162
REMARK   72  A    between atoms: _164  and  _166
REMARK   73  A    between atoms: _166  and  _167
REMARK   74  A    between atoms: _169  and  _171
REMARK   75  A    between atoms: _171  and  _172
REMARK   76  A    between atoms: _171  and  _174
REMARK   77  A    between atoms: _174  and  _175
REMARK   78  A    between atoms: _181  and  _183
REMARK   79  A    between atoms: _183  and  _184
REMARK   80  A    between atoms: _183  and  _186
REMARK   81  A    between atoms: _186  and  _187
REMARK   82  A    between atoms: _190  and  _192
REMARK   83  A    between atoms: _192  and  _193
REMARK   84  A    between atoms: _192  and  _195
REMARK   85  A    between atoms: _195  and  _196
REMARK   86  A    between atoms: _199  and  _201
REMARK   87  A    between atoms: _201  and  _202
REMARK   88  A    between atoms: _201  and  _204
REMARK   89  A    between atoms: _204  and  _205
REMARK   90  A    between atoms: _209  and  _210
REMARK   91  A    between atoms: _215  and  _217
REMARK   92  A    between atoms: _217  and  _218
REMARK   93  A    between atoms: _217  and  _220
REMARK   94  A    between atoms: _223  and  _225
REMARK   95  A    between atoms: _225  and  _226
REMARK   96  A    between atoms: _225  and  _228
REMARK   97  A    between atoms: _228  and  _229
REMARK   98  A    between atoms: _234  and  _236
REMARK   99  A    between atoms: _236  and  _237
REMARK  100  A    between atoms: _236  and  _239
REMARK  101  A    between atoms: _239  and  _240
REMARK  102  A    between atoms: _243  and  _245
REMARK  103  A    between atoms: _245  and  _246
REMARK  104  A    between atoms: _245  and  _248
REMARK  105  A    between atoms: _248  and  _249
REMARK  106  A    between atoms: _252  and  _254
REMARK  107  A    between atoms: _254  and  _255
REMARK  108  A    between atoms: _257  and  _259
REMARK  109  A    between atoms: _259  and  _260
REMARK  110  A    between atoms: _259  and  _262
REMARK  111  A    between atoms: _262  and  _263
REMARK  112  A    between atoms: _263  and  _264
REMARK  113  A    between atoms: _264  and  _265
REMARK  114  A    between atoms: _274  and  _276
REMARK  115  A    between atoms: _276  and  _277
REMARK  116  A    between atoms: _276  and  _279
REMARK  117  A    between atoms: _279  and  _280
REMARK  118  A    between atoms: _283  and  _285
REMARK  119  A    between atoms: _285  and  _286
REMARK  120  A    between atoms: _285  and  _288
REMARK  121  A    between atoms: _288  and  _289
REMARK  122  A    between atoms: _289  and  _290
REMARK  123  A    between atoms: _290  and  _291
REMARK  124  A    between atoms: _300  and  _302
REMARK  125  A    between atoms: _302  and  _303
REMARK  126  A    between atoms: _302  and  _305
REMARK  127  A    between atoms: _305  and  _306
REMARK  128  A    between atoms: _309  and  _311
REMARK  129  A    between atoms: _311  and  _312
REMARK  130  A    between atoms: _311  and  _314
REMARK  131  A    between atoms: _314  and  _315
REMARK  132  A    between atoms: _318  and  _320
REMARK  133  A    between atoms: _320  and  _321
REMARK  134  A    between atoms: _320  and  _323
REMARK  135  A    between atoms: _323  and  _324
REMARK  136  A    between atoms: _327  and  _329
REMARK  137  A    between atoms: _329  and  _330
REMARK  138  A    between atoms: _329  and  _332
REMARK  139  A    between atoms: _332  and  _333
REMARK  140  A    between atoms: _336  and  _338
REMARK  141  A    between atoms: _338  and  _339
REMARK  142  A    between atoms: _341  and  _343
REMARK  143  A    between atoms: _343  and  _344
REMARK  144  A    between atoms: _347  and  _349
REMARK  145  A    between atoms: _349  and  _350
REMARK  146  A    between atoms: _349  and  _352
REMARK  147  A    between atoms: _352  and  _353
REMARK  148  A    between atoms: _356  and  _358
REMARK  149  A    between atoms: _358  and  _359
REMARK  150  A    between atoms: _358  and  _361
REMARK  151  A    between atoms: _361  and  _362
REMARK  152  A    between atoms: _365  and  _367
REMARK  153  A    between atoms: _367  and  _368
REMARK  154  A    between atoms: _367  and  _370
REMARK  155  A    between atoms: _370  and  _371
REMARK  156  A    between atoms: _374  and  _376
REMARK  157  A    between atoms: _376  and  _377
REMARK  158  A    between atoms: _376  and  _379
REMARK  159  A    between atoms: _382  and  _384
REMARK  160  A    between atoms: _384  and  _385
REMARK  161  A    between atoms: _384  and  _387
REMARK  162  A    between atoms: _387  and  _388
REMARK  163  A    between atoms: _388  and  _389
REMARK  164  A    between atoms: _389  and  _390
REMARK  165  A    between atoms: _390  and  _391
REMARK  166  A    between atoms: _395  and  _397
REMARK  167  A    between atoms: _397  and  _398
REMARK  168  A    between atoms: _397  and  _400
REMARK  169  A    between atoms: _400  and  _401
REMARK  170  A    between atoms: _401  and  _402
REMARK  171  A    between atoms: _404  and  _406
REMARK  172  A    between atoms: _406  and  _407
REMARK  173  A    between atoms: _406  and  _409
REMARK  174  A    between atoms: _409  and  _410
REMARK  175  A    between atoms: _413  and  _415
REMARK  176  A    between atoms: _415  and  _416
REMARK  177  A    between atoms: _418  and  _420
REMARK  178  A    between atoms: _420  and  _421
REMARK  179  A    between atoms: _423  and  _425
REMARK  180  A    between atoms: _425  and  _426
REMARK  181  A    between atoms: _425  and  _428
REMARK  182  A    between atoms: _428  and  _429
REMARK  183  A    between atoms: _432  and  _434
REMARK  184  A    between atoms: _434  and  _435
REMARK  185  A    between atoms: _437  and  _439
REMARK  186  A    between atoms: _439  and  _440
REMARK  187  A    between atoms: _442  and  _444
REMARK  188  A    between atoms: _444  and  _445
REMARK  189  A    between atoms: _444  and  _447
REMARK  190  A    between atoms: _447  and  _448
REMARK  191  A    between atoms: _454  and  _456
REMARK  192  A    between atoms: _456  and  _457
REMARK  193  A    between atoms: _456  and  _459
REMARK  194  A    between atoms: _459  and  _460
REMARK  195  A    between atoms: _463  and  _465
REMARK  196  A    between atoms: _465  and  _466
REMARK  197  A    between atoms: _465  and  _468
REMARK  198  A    between atoms: _471  and  _473
REMARK  199  A    between atoms: _473  and  _474
REMARK  200  A    between atoms: _473  and  _476
REMARK  201  A    between atoms: _476  and  _477
REMARK  202  A    between atoms: _481  and  _482
REMARK  203  A    between atoms: _487  and  _489
REMARK  204  A    between atoms: _489  and  _490
REMARK  205  A    between atoms: _489  and  _492
REMARK  206  A    between atoms: _492  and  _493
REMARK  207  A    between atoms: _497  and  _498
REMARK  208  A    between atoms: _503  and  _505
REMARK  209  A    between atoms: _505  and  _506
REMARK  210  A    between atoms: _505  and  _508
REMARK  211  A    between atoms: _511  and  _513
REMARK  212  A    between atoms: _513  and  _514
REMARK  213  A    between atoms: _513  and  _516
REMARK  214  A    between atoms: _516  and  _517
REMARK  215  A    between atoms: _522  and  _524
REMARK  216  A    between atoms: _524  and  _525
REMARK  217  A    between atoms: _524  and  _527
REMARK  218  A    between atoms: _527  and  _528
REMARK  219  A    between atoms: _531  and  _533
REMARK  220  A    between atoms: _533  and  _534
REMARK  221  A    between atoms: _533  and  _536
REMARK  222  A    between atoms: _536  and  _537
REMARK  223  A    between atoms: _540  and  _542
REMARK  224  A    between atoms: _542  and  _543
REMARK  225  A    between atoms: _545  and  _547
REMARK  226  A    between atoms: _547  and  _548
REMARK  227  A    between atoms: _547  and  _550
REMARK  228  A    between atoms: _550  and  _551
REMARK  229  A    between atoms: _551  and  _552
REMARK  230  A    between atoms: _552  and  _553
REMARK  231  A    between atoms: _562  and  _564
REMARK  232  A    between atoms: _564  and  _565
REMARK  233  A    between atoms: _564  and  _567
REMARK  234  A    between atoms: _567  and  _568
REMARK                            x       y       z     vdW  Elec       q    Type
REMARK                         _______ _______ _______ _____ _____    ______ ____
ROOT
ATOM      1  O   HOH     1      18.557  28.621  16.324  0.00  0.00    +0.000 OA
ENDROOT
TORSDOF 0
REMARK  Name = ../refined-set-2016/3vfb/3vfb_pocket.pdb
REMARK  234 active torsions:
REMARK  status: ('A' for Active; 'I' for Inactive)
REMARK    1  A    between atoms: _1  and  _3
REMARK    2  A    between atoms: _3  and  _4
REMARK    3  A    between atoms: _3  and  _6
REMARK    4  A    between atoms: _6  and  _7
REMARK    5  A    between atoms: _7  and  _8
REMARK    6  A    between atoms: _8  and  _9
REMARK    7  A    between atoms: _18  and  _20
REMARK    8  A    between atoms: _20  and  _21
REMARK    9  A    between atoms: _20  and  _23
REMARK   10  A    between atoms: _23  and  _24
REMARK   11  A    between atoms: _27  and  _29
REMARK   12  A    between atoms: _29  and  _30
REMARK   13  A    between atoms: _29  and  _32
REMARK   14  A    between atoms: _32  and  _33
REMARK   15  A    between atoms: _36  and  _38
REMARK   16  A    between atoms: _38  and  _39
REMARK   17  A    between atoms: _38  and  _41
REMARK   18  A    between atoms: _41  and  _42
REMARK   19  A    between atoms: _45  and  _47
REMARK   20  A    between atoms: _47  and  _48
REMARK   21  A    between atoms: _47  and  _50
REMARK   22  A    between atoms: _50  and  _51
REMARK   23  A    between atoms: _54  and  _56
REMARK   24  A    between atoms: _56  and  _57
REMARK   25  A    between atoms: _56  and  _59
REMARK   26  A    between atoms: _59  and  _60
REMARK   27  A    between atoms: _63  and  _65
REMARK   28  A    between atoms: _65  and  _66
REMARK   29  A    between atoms: _68  and  _70
REMARK   30  A    between atoms: _70  and  _71
REMARK   31  A    between atoms: _74  and  _76
REMARK   32  A    between atoms: _76  and  _77
REMARK   33  A    between atoms: _76  and  _79
REMARK   34  A    between atoms: _79  and  _80
REMARK   35  A    between atoms: _83  and  _85
REMARK   36  A    between atoms: _85  and  _86
REMARK   37  A    between atoms: _85  and  _88
REMARK   38  A    between atoms: _88  and  _89
REMARK   39  A    between atoms: _92  and  _94
REMARK   40  A    between atoms: _94  and  _95
REMARK   41  A    between atoms: _94  and  _97
REMARK   42  A    between atoms: _97  and  _98
REMARK   43  A    between atoms: _101  and  _103
REMARK   44  A    between atoms: _103  and  _104
REMARK   45  A    between atoms: _103  and  _106
REMARK   46  A    between atoms: _109  and  _111
REMARK   47  A    between atoms: _111  and  _112
REMARK   48  A    between atoms: _111  and  _114
REMARK   49  A    between atoms: _114  and  _115
REMARK   50  A    between atoms: _115  and  _116
REMARK   51  A    between atoms: _116  and  _117
REMARK   52  A    between atoms: _117  and  _118
REMARK   53  A    between atoms: _122  and  _124
REMARK   54  A    between atoms: _124  and  _125
REMARK   55  A    between atoms: _124  and  _127
REMARK   56  A    between atoms: _127  and  _128
REMARK   57  A    between atoms: _128  and  _129
REMARK   58  A    between atoms: _131  and  _133
REMARK   59  A    between atoms: _133  and  _134
REMARK   60  A    between atoms: _133  and  _136
REMARK   61  A    between atoms: _136  and  _137
REMARK   62  A    between atoms: _140  and  _142
REMARK   63  A    between atoms: _142  and  _143
REMARK   64  A    between atoms: _145  and  _147
REMARK   65  A    between atoms: _147  and  _148
REMARK   66  A    between atoms: _150  and  _152
REMARK   67  A    between atoms: _152  and  _153
REMARK   68  A    between atoms: _152  and  _155
REMARK   69  A    between atoms: _155  and  _156
REMARK   70  A    between atoms: _159  and  _161
REMARK   71  A    between atoms: _161  and  _162
REMARK   72  A    between atoms: _164  and  _166
REMARK   73  A    between atoms: _166  and  _167
REMARK   74  A    between atoms: _169  and  _171
REMARK   75  A    between atoms: _171  and  _172
REMARK   76  A    between atoms: _171  and  _174
REMARK   77  A    between atoms: _174  and  _175
REMARK   78  A    between atoms: _181  and  _183
REMARK   79  A    between atoms: _183  and  _184
REMARK   80  A    between atoms: _183  and  _186
REMARK   81  A    between atoms: _186  and  _187
REMARK   82  A    between atoms: _190  and  _192
REMARK   83  A    between atoms: _192  and  _193
REMARK   84  A    between atoms: _192  and  _195
REMARK   85  A    between atoms: _195  and  _196
REMARK   86  A    between atoms: _199  and  _201
REMARK   87  A    between atoms: _201  and  _202
REMARK   88  A    between atoms: _201  and  _204
REMARK   89  A    between atoms: _204  and  _205
REMARK   90  A    between atoms: _209  and  _210
REMARK   91  A    between atoms: _215  and  _217
REMARK   92  A    between atoms: _217  and  _218
REMARK   93  A    between atoms: _217  and  _220
REMARK   94  A    between atoms: _223  and  _225
REMARK   95  A    between atoms: _225  and  _226
REMARK   96  A    between atoms: _225  and  _228
REMARK   97  A    between atoms: _228  and  _229
REMARK   98  A    between atoms: _234  and  _236
REMARK   99  A    between atoms: _236  and  _237
REMARK  100  A    between atoms: _236  and  _239
REMARK  101  A    between atoms: _239  and  _240
REMARK  102  A    between atoms: _243  and  _245
REMARK  103  A    between atoms: _245  and  _246
REMARK  104  A    between atoms: _245  and  _248
REMARK  105  A    between atoms: _248  and  _249
REMARK  106  A    between atoms: _252  and  _254
REMARK  107  A    between atoms: _254  and  _255
REMARK  108  A    between atoms: _257  and  _259
REMARK  109  A    between atoms: _259  and  _260
REMARK  110  A    between atoms: _259  and  _262
REMARK  111  A    between atoms: _262  and  _263
REMARK  112  A    between atoms: _263  and  _264
REMARK  113  A    between atoms: _264  and  _265
REMARK  114  A    between atoms: _274  and  _276
REMARK  115  A    between atoms: _276  and  _277
REMARK  116  A    between atoms: _276  and  _279
REMARK  117  A    between atoms: _279  and  _280
REMARK  118  A    between atoms: _283  and  _285
REMARK  119  A    between atoms: _285  and  _286
REMARK  120  A    between atoms: _285  and  _288
REMARK  121  A    between atoms: _288  and  _289
REMARK  122  A    between atoms: _289  and  _290
REMARK  123  A    between atoms: _290  and  _291
REMARK  124  A    between atoms: _300  and  _302
REMARK  125  A    between atoms: _302  and  _303
REMARK  126  A    between atoms: _302  and  _305
REMARK  127  A    between atoms: _305  and  _306
REMARK  128  A    between atoms: _309  and  _311
REMARK  129  A    between atoms: _311  and  _312
REMARK  130  A    between atoms: _311  and  _314
REMARK  131  A    between atoms: _314  and  _315
REMARK  132  A    between atoms: _318  and  _320
REMARK  133  A    between atoms: _320  and  _321
REMARK  134  A    between atoms: _320  and  _323
REMARK  135  A    between atoms: _323  and  _324
REMARK  136  A    between atoms: _327  and  _329
REMARK  137  A    between atoms: _329  and  _330
REMARK  138  A    between atoms: _329  and  _332
REMARK  139  A    between atoms: _332  and  _333
REMARK  140  A    between atoms: _336  and  _338
REMARK  141  A    between atoms: _338  and  _339
REMARK  142  A    between atoms: _341  and  _343
REMARK  143  A    between atoms: _343  and  _344
REMARK  144  A    between atoms: _347  and  _349
REMARK  145  A    between atoms: _349  and  _350
REMARK  146  A    between atoms: _349  and  _352
REMARK  147  A    between atoms: _352  and  _353
REMARK  148  A    between atoms: _356  and  _358
REMARK  149  A    between atoms: _358  and  _359
REMARK  150  A    between atoms: _358  and  _361
REMARK  151  A    between atoms: _361  and  _362
REMARK  152  A    between atoms: _365  and  _367
REMARK  153  A    between atoms: _367  and  _368
REMARK  154  A    between atoms: _367  and  _370
REMARK  155  A    between atoms: _370  and  _371
REMARK  156  A    between atoms: _374  and  _376
REMARK  157  A    between atoms: _376  and  _377
REMARK  158  A    between atoms: _376  and  _379
REMARK  159  A    between atoms: _382  and  _384
REMARK  160  A    between atoms: _384  and  _385
REMARK  161  A    between atoms: _384  and  _387
REMARK  162  A    between atoms: _387  and  _388
REMARK  163  A    between atoms: _388  and  _389
REMARK  164  A    between atoms: _389  and  _390
REMARK  165  A    between atoms: _390  and  _391
REMARK  166  A    between atoms: _395  and  _397
REMARK  167  A    between atoms: _397  and  _398
REMARK  168  A    between atoms: _397  and  _400
REMARK  169  A    between atoms: _400  and  _401
REMARK  170  A    between atoms: _401  and  _402
REMARK  171  A    between atoms: _404  and  _406
REMARK  172  A    between atoms: _406  and  _407
REMARK  173  A    between atoms: _406  and  _409
REMARK  174  A    between atoms: _409  and  _410
REMARK  175  A    between atoms: _413  and  _415
REMARK  176  A    between atoms: _415  and  _416
REMARK  177  A    between atoms: _418  and  _420
REMARK  178  A    between atoms: _420  and  _421
REMARK  179  A    between atoms: _423  and  _425
REMARK  180  A    between atoms: _425  and  _426
REMARK  181  A    between atoms: _425  and  _428
REMARK  182  A    between atoms: _428  and  _429
REMARK  183  A    between atoms: _432  and  _434
REMARK  184  A    between atoms: _434  and  _435
REMARK  185  A    between atoms: _437  and  _439
REMARK  186  A    between atoms: _439  and  _440
REMARK  187  A    between atoms: _442  and  _444
REMARK  188  A    between atoms: _444  and  _445
REMARK  189  A    between atoms: _444  and  _447
REMARK  190  A    between atoms: _447  and  _448
REMARK  191  A    between atoms: _454  and  _456
REMARK  192  A    between atoms: _456  and  _457
REMARK  193  A    between atoms: _456  and  _459
REMARK  194  A    between atoms: _459  and  _460
REMARK  195  A    between atoms: _463  and  _465
REMARK  196  A    between atoms: _465  and  _466
REMARK  197  A    between atoms: _465  and  _468
REMARK  198  A    between atoms: _471  and  _473
REMARK  199  A    between atoms: _473  and  _474
REMARK  200  A    between atoms: _473  and  _476
REMARK  201  A    between atoms: _476  and  _477
REMARK  202  A    between atoms: _481  and  _482
REMARK  203  A    between atoms: _487  and  _489
REMARK  204  A    between atoms: _489  and  _490
REMARK  205  A    between atoms: _489  and  _492
REMARK  206  A    between atoms: _492  and  _493
REMARK  207  A    between atoms: _497  and  _498
REMARK  208  A    between atoms: _503  and  _505
REMARK  209  A    between atoms: _505  and  _506
REMARK  210  A    between atoms: _505  and  _508
REMARK  211  A    between atoms: _511  and  _513
REMARK  212  A    between atoms: _513  and  _514
REMARK  213  A    between atoms: _513  and  _516
REMARK  214  A    between atoms: _516  and  _517
REMARK  215  A    between atoms: _522  and  _524
REMARK  216  A    between atoms: _524  and  _525
REMARK  217  A    between atoms: _524  and  _527
REMARK  218  A    between atoms: _527  and  _528
REMARK  219  A    between atoms: _531  and  _533
REMARK  220  A    between atoms: _533  and  _534
REMARK  221  A    between atoms: _533  and  _536
REMARK  222  A    between atoms: _536  and  _537
REMARK  223  A    between atoms: _540  and  _542
REMARK  224  A    between atoms: _542  and  _543
REMARK  225  A    between atoms: _545  and  _547
REMARK  226  A    between atoms: _547  and  _548
REMARK  227  A    between atoms: _547  and  _550
REMARK  228  A    between atoms: _550  and  _551
REMARK  229  A    between atoms: _551  and  _552
REMARK  230  A    between atoms: _552  and  _553
REMARK  231  A    between atoms: _562  and  _564
REMARK  232  A    between atoms: _564  and  _565
REMARK  233  A    between atoms: _564  and  _567
REMARK  234  A    between atoms: _567  and  _568
REMARK                            x       y       z     vdW  Elec       q    Type
REMARK                         _______ _______ _______ _____ _____    ______ ____
ROOT
ATOM      1  O   HOH     1      19.997  27.118  26.884  0.00  0.00    +0.000 OA
ENDROOT
TORSDOF 0
REMARK  Name = ../refined-set-2016/3vfb/3vfb_pocket.pdb
REMARK  234 active torsions:
REMARK  status: ('A' for Active; 'I' for Inactive)
REMARK    1  A    between atoms: _1  and  _3
REMARK    2  A    between atoms: _3  and  _4
REMARK    3  A    between atoms: _3  and  _6
REMARK    4  A    between atoms: _6  and  _7
REMARK    5  A    between atoms: _7  and  _8
REMARK    6  A    between atoms: _8  and  _9
REMARK    7  A    between atoms: _18  and  _20
REMARK    8  A    between atoms: _20  and  _21
REMARK    9  A    between atoms: _20  and  _23
REMARK   10  A    between atoms: _23  and  _24
REMARK   11  A    between atoms: _27  and  _29
REMARK   12  A    between atoms: _29  and  _30
REMARK   13  A    between atoms: _29  and  _32
REMARK   14  A    between atoms: _32  and  _33
REMARK   15  A    between atoms: _36  and  _38
REMARK   16  A    between atoms: _38  and  _39
REMARK   17  A    between atoms: _38  and  _41
REMARK   18  A    between atoms: _41  and  _42
REMARK   19  A    between atoms: _45  and  _47
REMARK   20  A    between atoms: _47  and  _48
REMARK   21  A    between atoms: _47  and  _50
REMARK   22  A    between atoms: _50  and  _51
REMARK   23  A    between atoms: _54  and  _56
REMARK   24  A    between atoms: _56  and  _57
REMARK   25  A    between atoms: _56  and  _59
REMARK   26  A    between atoms: _59  and  _60
REMARK   27  A    between atoms: _63  and  _65
REMARK   28  A    between atoms: _65  and  _66
REMARK   29  A    between atoms: _68  and  _70
REMARK   30  A    between atoms: _70  and  _71
REMARK   31  A    between atoms: _74  and  _76
REMARK   32  A    between atoms: _76  and  _77
REMARK   33  A    between atoms: _76  and  _79
REMARK   34  A    between atoms: _79  and  _80
REMARK   35  A    between atoms: _83  and  _85
REMARK   36  A    between atoms: _85  and  _86
REMARK   37  A    between atoms: _85  and  _88
REMARK   38  A    between atoms: _88  and  _89
REMARK   39  A    between atoms: _92  and  _94
REMARK   40  A    between atoms: _94  and  _95
REMARK   41  A    between atoms: _94  and  _97
REMARK   42  A    between atoms: _97  and  _98
REMARK   43  A    between atoms: _101  and  _103
REMARK   44  A    between atoms: _103  and  _104
REMARK   45  A    between atoms: _103  and  _106
REMARK   46  A    between atoms: _109  and  _111
REMARK   47  A    between atoms: _111  and  _112
REMARK   48  A    between atoms: _111  and  _114
REMARK   49  A    between atoms: _114  and  _115
REMARK   50  A    between atoms: _115  and  _116
REMARK   51  A    between atoms: _116  and  _117
REMARK   52  A    between atoms: _117  and  _118
REMARK   53  A    between atoms: _122  and  _124
REMARK   54  A    between atoms: _124  and  _125
REMARK   55  A    between atoms: _124  and  _127
REMARK   56  A    between atoms: _127  and  _128
REMARK   57  A    between atoms: _128  and  _129
REMARK   58  A    between atoms: _131  and  _133
REMARK   59  A    between atoms: _133  and  _134
REMARK   60  A    between atoms: _133  and  _136
REMARK   61  A    between atoms: _136  and  _137
REMARK   62  A    between atoms: _140  and  _142
REMARK   63  A    between atoms: _142  and  _143
REMARK   64  A    between atoms: _145  and  _147
REMARK   65  A    between atoms: _147  and  _148
REMARK   66  A    between atoms: _150  and  _152
REMARK   67  A    between atoms: _152  and  _153
REMARK   68  A    between atoms: _152  and  _155
REMARK   69  A    between atoms: _155  and  _156
REMARK   70  A    between atoms: _159  and  _161
REMARK   71  A    between atoms: _161  and  _162
REMARK   72  A    between atoms: _164  and  _166
REMARK   73  A    between atoms: _166  and  _167
REMARK   74  A    between atoms: _169  and  _171
REMARK   75  A    between atoms: _171  and  _172
REMARK   76  A    between atoms: _171  and  _174
REMARK   77  A    between atoms: _174  and  _175
REMARK   78  A    between atoms: _181  and  _183
REMARK   79  A    between atoms: _183  and  _184
REMARK   80  A    between atoms: _183  and  _186
REMARK   81  A    between atoms: _186  and  _187
REMARK   82  A    between atoms: _190  and  _192
REMARK   83  A    between atoms: _192  and  _193
REMARK   84  A    between atoms: _192  and  _195
REMARK   85  A    between atoms: _195  and  _196
REMARK   86  A    between atoms: _199  and  _201
REMARK   87  A    between atoms: _201  and  _202
REMARK   88  A    between atoms: _201  and  _204
REMARK   89  A    between atoms: _204  and  _205
REMARK   90  A    between atoms: _209  and  _210
REMARK   91  A    between atoms: _215  and  _217
REMARK   92  A    between atoms: _217  and  _218
REMARK   93  A    between atoms: _217  and  _220
REMARK   94  A    between atoms: _223  and  _225
REMARK   95  A    between atoms: _225  and  _226
REMARK   96  A    between atoms: _225  and  _228
REMARK   97  A    between atoms: _228  and  _229
REMARK   98  A    between atoms: _234  and  _236
REMARK   99  A    between atoms: _236  and  _237
REMARK  100  A    between atoms: _236  and  _239
REMARK  101  A    between atoms: _239  and  _240
REMARK  102  A    between atoms: _243  and  _245
REMARK  103  A    between atoms: _245  and  _246
REMARK  104  A    between atoms: _245  and  _248
REMARK  105  A    between atoms: _248  and  _249
REMARK  106  A    between atoms: _252  and  _254
REMARK  107  A    between atoms: _254  and  _255
REMARK  108  A    between atoms: _257  and  _259
REMARK  109  A    between atoms: _259  and  _260
REMARK  110  A    between atoms: _259  and  _262
REMARK  111  A    between atoms: _262  and  _263
REMARK  112  A    between atoms: _263  and  _264
REMARK  113  A    between atoms: _264  and  _265
REMARK  114  A    between atoms: _274  and  _276
REMARK  115  A    between atoms: _276  and  _277
REMARK  116  A    between atoms: _276  and  _279
REMARK  117  A    between atoms: _279  and  _280
REMARK  118  A    between atoms: _283  and  _285
REMARK  119  A    between atoms: _285  and  _286
REMARK  120  A    between atoms: _285  and  _288
REMARK  121  A    between atoms: _288  and  _289
REMARK  122  A    between atoms: _289  and  _290
REMARK  123  A    between atoms: _290  and  _291
REMARK  124  A    between atoms: _300  and  _302
REMARK  125  A    between atoms: _302  and  _303
REMARK  126  A    between atoms: _302  and  _305
REMARK  127  A    between atoms: _305  and  _306
REMARK  128  A    between atoms: _309  and  _311
REMARK  129  A    between atoms: _311  and  _312
REMARK  130  A    between atoms: _311  and  _314
REMARK  131  A    between atoms: _314  and  _315
REMARK  132  A    between atoms: _318  and  _320
REMARK  133  A    between atoms: _320  and  _321
REMARK  134  A    between atoms: _320  and  _323
REMARK  135  A    between atoms: _323  and  _324
REMARK  136  A    between atoms: _327  and  _329
REMARK  137  A    between atoms: _329  and  _330
REMARK  138  A    between atoms: _329  and  _332
REMARK  139  A    between atoms: _332  and  _333
REMARK  140  A    between atoms: _336  and  _338
REMARK  141  A    between atoms: _338  and  _339
REMARK  142  A    between atoms: _341  and  _343
REMARK  143  A    between atoms: _343  and  _344
REMARK  144  A    between atoms: _347  and  _349
REMARK  145  A    between atoms: _349  and  _350
REMARK  146  A    between atoms: _349  and  _352
REMARK  147  A    between atoms: _352  and  _353
REMARK  148  A    between atoms: _356  and  _358
REMARK  149  A    between atoms: _358  and  _359
REMARK  150  A    between atoms: _358  and  _361
REMARK  151  A    between atoms: _361  and  _362
REMARK  152  A    between atoms: _365  and  _367
REMARK  153  A    between atoms: _367  and  _368
REMARK  154  A    between atoms: _367  and  _370
REMARK  155  A    between atoms: _370  and  _371
REMARK  156  A    between atoms: _374  and  _376
REMARK  157  A    between atoms: _376  and  _377
REMARK  158  A    between atoms: _376  and  _379
REMARK  159  A    between atoms: _382  and  _384
REMARK  160  A    between atoms: _384  and  _385
REMARK  161  A    between atoms: _384  and  _387
REMARK  162  A    between atoms: _387  and  _388
REMARK  163  A    between atoms: _388  and  _389
REMARK  164  A    between atoms: _389  and  _390
REMARK  165  A    between atoms: _390  and  _391
REMARK  166  A    between atoms: _395  and  _397
REMARK  167  A    between atoms: _397  and  _398
REMARK  168  A    between atoms: _397  and  _400
REMARK  169  A    between atoms: _400  and  _401
REMARK  170  A    between atoms: _401  and  _402
REMARK  171  A    between atoms: _404  and  _406
REMARK  172  A    between atoms: _406  and  _407
REMARK  173  A    between atoms: _406  and  _409
REMARK  174  A    between atoms: _409  and  _410
REMARK  175  A    between atoms: _413  and  _415
REMARK  176  A    between atoms: _415  and  _416
REMARK  177  A    between atoms: _418  and  _420
REMARK  178  A    between atoms: _420  and  _421
REMARK  179  A    between atoms: _423  and  _425
REMARK  180  A    between atoms: _425  and  _426
REMARK  181  A    between atoms: _425  and  _428
REMARK  182  A    between atoms: _428  and  _429
REMARK  183  A    between atoms: _432  and  _434
REMARK  184  A    between atoms: _434  and  _435
REMARK  185  A    between atoms: _437  and  _439
REMARK  186  A    between atoms: _439  and  _440
REMARK  187  A    between atoms: _442  and  _444
REMARK  188  A    between atoms: _444  and  _445
REMARK  189  A    between atoms: _444  and  _447
REMARK  190  A    between atoms: _447  and  _448
REMARK  191  A    between atoms: _454  and  _456
REMARK  192  A    between atoms: _456  and  _457
REMARK  193  A    between atoms: _456  and  _459
REMARK  194  A    between atoms: _459  and  _460
REMARK  195  A    between atoms: _463  and  _465
REMARK  196  A    between atoms: _465  and  _466
REMARK  197  A    between atoms: _465  and  _468
REMARK  198  A    between atoms: _471  and  _473
REMARK  199  A    between atoms: _473  and  _474
REMARK  200  A    between atoms: _473  and  _476
REMARK  201  A    between atoms: _476  and  _477
REMARK  202  A    between atoms: _481  and  _482
REMARK  203  A    between atoms: _487  and  _489
REMARK  204  A    between atoms: _489  and  _490
REMARK  205  A    between atoms: _489  and  _492
REMARK  206  A    between atoms: _492  and  _493
REMARK  207  A    between atoms: _497  and  _498
REMARK  208  A    between atoms: _503  and  _505
REMARK  209  A    between atoms: _505  and  _506
REMARK  210  A    between atoms: _505  and  _508
REMARK  211  A    between atoms: _511  and  _513
REMARK  212  A    between atoms: _513  and  _514
REMARK  213  A    between atoms: _513  and  _516
REMARK  214  A    between atoms: _516  and  _517
REMARK  215  A    between atoms: _522  and  _524
REMARK  216  A    between atoms: _524  and  _525
REMARK  217  A    between atoms: _524  and  _527
REMARK  218  A    between atoms: _527  and  _528
REMARK  219  A    between atoms: _531  and  _533
REMARK  220  A    between atoms: _533  and  _534
REMARK  221  A    between atoms: _533  and  _536
REMARK  222  A    between atoms: _536  and  _537
REMARK  223  A    between atoms: _540  and  _542
REMARK  224  A    between atoms: _542  and  _543
REMARK  225  A    between atoms: _545  and  _547
REMARK  226  A    between atoms: _547  and  _548
REMARK  227  A    between atoms: _547  and  _550
REMARK  228  A    between atoms: _550  and  _551
REMARK  229  A    between atoms: _551  and  _552
REMARK  230  A    between atoms: _552  and  _553
REMARK  231  A    between atoms: _562  and  _564
REMARK  232  A    between atoms: _564  and  _565
REMARK  233  A    between atoms: _564  and  _567
REMARK  234  A    between atoms: _567  and  _568
REMARK                            x       y       z     vdW  Elec       q    Type
REMARK                         _______ _______ _______ _____ _____    ______ ____
ROOT
ATOM      1  O   HOH     1      13.698  27.641  11.785  0.00  0.00    +0.000 OA
ENDROOT
TORSDOF 0
REMARK  Name = ../refined-set-2016/3vfb/3vfb_pocket.pdb
REMARK  234 active torsions:
REMARK  status: ('A' for Active; 'I' for Inactive)
REMARK    1  A    between atoms: _1  and  _3
REMARK    2  A    between atoms: _3  and  _4
REMARK    3  A    between atoms: _3  and  _6
REMARK    4  A    between atoms: _6  and  _7
REMARK    5  A    between atoms: _7  and  _8
REMARK    6  A    between atoms: _8  and  _9
REMARK    7  A    between atoms: _18  and  _20
REMARK    8  A    between atoms: _20  and  _21
REMARK    9  A    between atoms: _20  and  _23
REMARK   10  A    between atoms: _23  and  _24
REMARK   11  A    between atoms: _27  and  _29
REMARK   12  A    between atoms: _29  and  _30
REMARK   13  A    between atoms: _29  and  _32
REMARK   14  A    between atoms: _32  and  _33
REMARK   15  A    between atoms: _36  and  _38
REMARK   16  A    between atoms: _38  and  _39
REMARK   17  A    between atoms: _38  and  _41
REMARK   18  A    between atoms: _41  and  _42
REMARK   19  A    between atoms: _45  and  _47
REMARK   20  A    between atoms: _47  and  _48
REMARK   21  A    between atoms: _47  and  _50
REMARK   22  A    between atoms: _50  and  _51
REMARK   23  A    between atoms: _54  and  _56
REMARK   24  A    between atoms: _56  and  _57
REMARK   25  A    between atoms: _56  and  _59
REMARK   26  A    between atoms: _59  and  _60
REMARK   27  A    between atoms: _63  and  _65
REMARK   28  A    between atoms: _65  and  _66
REMARK   29  A    between atoms: _68  and  _70
REMARK   30  A    between atoms: _70  and  _71
REMARK   31  A    between atoms: _74  and  _76
REMARK   32  A    between atoms: _76  and  _77
REMARK   33  A    between atoms: _76  and  _79
REMARK   34  A    between atoms: _79  and  _80
REMARK   35  A    between atoms: _83  and  _85
REMARK   36  A    between atoms: _85  and  _86
REMARK   37  A    between atoms: _85  and  _88
REMARK   38  A    between atoms: _88  and  _89
REMARK   39  A    between atoms: _92  and  _94
REMARK   40  A    between atoms: _94  and  _95
REMARK   41  A    between atoms: _94  and  _97
REMARK   42  A    between atoms: _97  and  _98
REMARK   43  A    between atoms: _101  and  _103
REMARK   44  A    between atoms: _103  and  _104
REMARK   45  A    between atoms: _103  and  _106
REMARK   46  A    between atoms: _109  and  _111
REMARK   47  A    between atoms: _111  and  _112
REMARK   48  A    between atoms: _111  and  _114
REMARK   49  A    between atoms: _114  and  _115
REMARK   50  A    between atoms: _115  and  _116
REMARK   51  A    between atoms: _116  and  _117
REMARK   52  A    between atoms: _117  and  _118
REMARK   53  A    between atoms: _122  and  _124
REMARK   54  A    between atoms: _124  and  _125
REMARK   55  A    between atoms: _124  and  _127
REMARK   56  A    between atoms: _127  and  _128
REMARK   57  A    between atoms: _128  and  _129
REMARK   58  A    between atoms: _131  and  _133
REMARK   59  A    between atoms: _133  and  _134
REMARK   60  A    between atoms: _133  and  _136
REMARK   61  A    between atoms: _136  and  _137
REMARK   62  A    between atoms: _140  and  _142
REMARK   63  A    between atoms: _142  and  _143
REMARK   64  A    between atoms: _145  and  _147
REMARK   65  A    between atoms: _147  and  _148
REMARK   66  A    between atoms: _150  and  _152
REMARK   67  A    between atoms: _152  and  _153
REMARK   68  A    between atoms: _152  and  _155
REMARK   69  A    between atoms: _155  and  _156
REMARK   70  A    between atoms: _159  and  _161
REMARK   71  A    between atoms: _161  and  _162
REMARK   72  A    between atoms: _164  and  _166
REMARK   73  A    between atoms: _166  and  _167
REMARK   74  A    between atoms: _169  and  _171
REMARK   75  A    between atoms: _171  and  _172
REMARK   76  A    between atoms: _171  and  _174
REMARK   77  A    between atoms: _174  and  _175
REMARK   78  A    between atoms: _181  and  _183
REMARK   79  A    between atoms: _183  and  _184
REMARK   80  A    between atoms: _183  and  _186
REMARK   81  A    between atoms: _186  and  _187
REMARK   82  A    between atoms: _190  and  _192
REMARK   83  A    between atoms: _192  and  _193
REMARK   84  A    between atoms: _192  and  _195
REMARK   85  A    between atoms: _195  and  _196
REMARK   86  A    between atoms: _199  and  _201
REMARK   87  A    between atoms: _201  and  _202
REMARK   88  A    between atoms: _201  and  _204
REMARK   89  A    between atoms: _204  and  _205
REMARK   90  A    between atoms: _209  and  _210
REMARK   91  A    between atoms: _215  and  _217
REMARK   92  A    between atoms: _217  and  _218
REMARK   93  A    between atoms: _217  and  _220
REMARK   94  A    between atoms: _223  and  _225
REMARK   95  A    between atoms: _225  and  _226
REMARK   96  A    between atoms: _225  and  _228
REMARK   97  A    between atoms: _228  and  _229
REMARK   98  A    between atoms: _234  and  _236
REMARK   99  A    between atoms: _236  and  _237
REMARK  100  A    between atoms: _236  and  _239
REMARK  101  A    between atoms: _239  and  _240
REMARK  102  A    between atoms: _243  and  _245
REMARK  103  A    between atoms: _245  and  _246
REMARK  104  A    between atoms: _245  and  _248
REMARK  105  A    between atoms: _248  and  _249
REMARK  106  A    between atoms: _252  and  _254
REMARK  107  A    between atoms: _254  and  _255
REMARK  108  A    between atoms: _257  and  _259
REMARK  109  A    between atoms: _259  and  _260
REMARK  110  A    between atoms: _259  and  _262
REMARK  111  A    between atoms: _262  and  _263
REMARK  112  A    between atoms: _263  and  _264
REMARK  113  A    between atoms: _264  and  _265
REMARK  114  A    between atoms: _274  and  _276
REMARK  115  A    between atoms: _276  and  _277
REMARK  116  A    between atoms: _276  and  _279
REMARK  117  A    between atoms: _279  and  _280
REMARK  118  A    between atoms: _283  and  _285
REMARK  119  A    between atoms: _285  and  _286
REMARK  120  A    between atoms: _285  and  _288
REMARK  121  A    between atoms: _288  and  _289
REMARK  122  A    between atoms: _289  and  _290
REMARK  123  A    between atoms: _290  and  _291
REMARK  124  A    between atoms: _300  and  _302
REMARK  125  A    between atoms: _302  and  _303
REMARK  126  A    between atoms: _302  and  _305
REMARK  127  A    between atoms: _305  and  _306
REMARK  128  A    between atoms: _309  and  _311
REMARK  129  A    between atoms: _311  and  _312
REMARK  130  A    between atoms: _311  and  _314
REMARK  131  A    between atoms: _314  and  _315
REMARK  132  A    between atoms: _318  and  _320
REMARK  133  A    between atoms: _320  and  _321
REMARK  134  A    between atoms: _320  and  _323
REMARK  135  A    between atoms: _323  and  _324
REMARK  136  A    between atoms: _327  and  _329
REMARK  137  A    between atoms: _329  and  _330
REMARK  138  A    between atoms: _329  and  _332
REMARK  139  A    between atoms: _332  and  _333
REMARK  140  A    between atoms: _336  and  _338
REMARK  141  A    between atoms: _338  and  _339
REMARK  142  A    between atoms: _341  and  _343
REMARK  143  A    between atoms: _343  and  _344
REMARK  144  A    between atoms: _347  and  _349
REMARK  145  A    between atoms: _349  and  _350
REMARK  146  A    between atoms: _349  and  _352
REMARK  147  A    between atoms: _352  and  _353
REMARK  148  A    between atoms: _356  and  _358
REMARK  149  A    between atoms: _358  and  _359
REMARK  150  A    between atoms: _358  and  _361
REMARK  151  A    between atoms: _361  and  _362
REMARK  152  A    between atoms: _365  and  _367
REMARK  153  A    between atoms: _367  and  _368
REMARK  154  A    between atoms: _367  and  _370
REMARK  155  A    between atoms: _370  and  _371
REMARK  156  A    between atoms: _374  and  _376
REMARK  157  A    between atoms: _376  and  _377
REMARK  158  A    between atoms: _376  and  _379
REMARK  159  A    between atoms: _382  and  _384
REMARK  160  A    between atoms: _384  and  _385
REMARK  161  A    between atoms: _384  and  _387
REMARK  162  A    between atoms: _387  and  _388
REMARK  163  A    between atoms: _388  and  _389
REMARK  164  A    between atoms: _389  and  _390
REMARK  165  A    between atoms: _390  and  _391
REMARK  166  A    between atoms: _395  and  _397
REMARK  167  A    between atoms: _397  and  _398
REMARK  168  A    between atoms: _397  and  _400
REMARK  169  A    between atoms: _400  and  _401
REMARK  170  A    between atoms: _401  and  _402
REMARK  171  A    between atoms: _404  and  _406
REMARK  172  A    between atoms: _406  and  _407
REMARK  173  A    between atoms: _406  and  _409
REMARK  174  A    between atoms: _409  and  _410
REMARK  175  A    between atoms: _413  and  _415
REMARK  176  A    between atoms: _415  and  _416
REMARK  177  A    between atoms: _418  and  _420
REMARK  178  A    between atoms: _420  and  _421
REMARK  179  A    between atoms: _423  and  _425
REMARK  180  A    between atoms: _425  and  _426
REMARK  181  A    between atoms: _425  and  _428
REMARK  182  A    between atoms: _428  and  _429
REMARK  183  A    between atoms: _432  and  _434
REMARK  184  A    between atoms: _434  and  _435
REMARK  185  A    between atoms: _437  and  _439
REMARK  186  A    between atoms: _439  and  _440
REMARK  187  A    between atoms: _442  and  _444
REMARK  188  A    between atoms: _444  and  _445
REMARK  189  A    between atoms: _444  and  _447
REMARK  190  A    between atoms: _447  and  _448
REMARK  191  A    between atoms: _454  and  _456
REMARK  192  A    between atoms: _456  and  _457
REMARK  193  A    between atoms: _456  and  _459
REMARK  194  A    between atoms: _459  and  _460
REMARK  195  A    between atoms: _463  and  _465
REMARK  196  A    between atoms: _465  and  _466
REMARK  197  A    between atoms: _465  and  _468
REMARK  198  A    between atoms: _471  and  _473
REMARK  199  A    between atoms: _473  and  _474
REMARK  200  A    between atoms: _473  and  _476
REMARK  201  A    between atoms: _476  and  _477
REMARK  202  A    between atoms: _481  and  _482
REMARK  203  A    between atoms: _487  and  _489
REMARK  204  A    between atoms: _489  and  _490
REMARK  205  A    between atoms: _489  and  _492
REMARK  206  A    between atoms: _492  and  _493
REMARK  207  A    between atoms: _497  and  _498
REMARK  208  A    between atoms: _503  and  _505
REMARK  209  A    between atoms: _505  and  _506
REMARK  210  A    between atoms: _505  and  _508
REMARK  211  A    between atoms: _511  and  _513
REMARK  212  A    between atoms: _513  and  _514
REMARK  213  A    between atoms: _513  and  _516
REMARK  214  A    between atoms: _516  and  _517
REMARK  215  A    between atoms: _522  and  _524
REMARK  216  A    between atoms: _524  and  _525
REMARK  217  A    between atoms: _524  and  _527
REMARK  218  A    between atoms: _527  and  _528
REMARK  219  A    between atoms: _531  and  _533
REMARK  220  A    between atoms: _533  and  _534
REMARK  221  A    between atoms: _533  and  _536
REMARK  222  A    between atoms: _536  and  _537
REMARK  223  A    between atoms: _540  and  _542
REMARK  224  A    between atoms: _542  and  _543
REMARK  225  A    between atoms: _545  and  _547
REMARK  226  A    between atoms: _547  and  _548
REMARK  227  A    between atoms: _547  and  _550
REMARK  228  A    between atoms: _550  and  _551
REMARK  229  A    between atoms: _551  and  _552
REMARK  230  A    between atoms: _552  and  _553
REMARK  231  A    between atoms: _562  and  _564
REMARK  232  A    between atoms: _564  and  _565
REMARK  233  A    between atoms: _564  and  _567
REMARK  234  A    between atoms: _567  and  _568
REMARK                            x       y       z     vdW  Elec       q    Type
REMARK                         _______ _______ _______ _____ _____    ______ ____
ROOT
ATOM      1  O   HOH     1      16.484  27.537  11.238  0.00  0.00    +0.000 OA
ENDROOT
TORSDOF 0
REMARK  Name = ../refined-set-2016/3vfb/3vfb_pocket.pdb
REMARK  234 active torsions:
REMARK  status: ('A' for Active; 'I' for Inactive)
REMARK    1  A    between atoms: _1  and  _3
REMARK    2  A    between atoms: _3  and  _4
REMARK    3  A    between atoms: _3  and  _6
REMARK    4  A    between atoms: _6  and  _7
REMARK    5  A    between atoms: _7  and  _8
REMARK    6  A    between atoms: _8  and  _9
REMARK    7  A    between atoms: _18  and  _20
REMARK    8  A    between atoms: _20  and  _21
REMARK    9  A    between atoms: _20  and  _23
REMARK   10  A    between atoms: _23  and  _24
REMARK   11  A    between atoms: _27  and  _29
REMARK   12  A    between atoms: _29  and  _30
REMARK   13  A    between atoms: _29  and  _32
REMARK   14  A    between atoms: _32  and  _33
REMARK   15  A    between atoms: _36  and  _38
REMARK   16  A    between atoms: _38  and  _39
REMARK   17  A    between atoms: _38  and  _41
REMARK   18  A    between atoms: _41  and  _42
REMARK   19  A    between atoms: _45  and  _47
REMARK   20  A    between atoms: _47  and  _48
REMARK   21  A    between atoms: _47  and  _50
REMARK   22  A    between atoms: _50  and  _51
REMARK   23  A    between atoms: _54  and  _56
REMARK   24  A    between atoms: _56  and  _57
REMARK   25  A    between atoms: _56  and  _59
REMARK   26  A    between atoms: _59  and  _60
REMARK   27  A    between atoms: _63  and  _65
REMARK   28  A    between atoms: _65  and  _66
REMARK   29  A    between atoms: _68  and  _70
REMARK   30  A    between atoms: _70  and  _71
REMARK   31  A    between atoms: _74  and  _76
REMARK   32  A    between atoms: _76  and  _77
REMARK   33  A    between atoms: _76  and  _79
REMARK   34  A    between atoms: _79  and  _80
REMARK   35  A    between atoms: _83  and  _85
REMARK   36  A    between atoms: _85  and  _86
REMARK   37  A    between atoms: _85  and  _88
REMARK   38  A    between atoms: _88  and  _89
REMARK   39  A    between atoms: _92  and  _94
REMARK   40  A    between atoms: _94  and  _95
REMARK   41  A    between atoms: _94  and  _97
REMARK   42  A    between atoms: _97  and  _98
REMARK   43  A    between atoms: _101  and  _103
REMARK   44  A    between atoms: _103  and  _104
REMARK   45  A    between atoms: _103  and  _106
REMARK   46  A    between atoms: _109  and  _111
REMARK   47  A    between atoms: _111  and  _112
REMARK   48  A    between atoms: _111  and  _114
REMARK   49  A    between atoms: _114  and  _115
REMARK   50  A    between atoms: _115  and  _116
REMARK   51  A    between atoms: _116  and  _117
REMARK   52  A    between atoms: _117  and  _118
REMARK   53  A    between atoms: _122  and  _124
REMARK   54  A    between atoms: _124  and  _125
REMARK   55  A    between atoms: _124  and  _127
REMARK   56  A    between atoms: _127  and  _128
REMARK   57  A    between atoms: _128  and  _129
REMARK   58  A    between atoms: _131  and  _133
REMARK   59  A    between atoms: _133  and  _134
REMARK   60  A    between atoms: _133  and  _136
REMARK   61  A    between atoms: _136  and  _137
REMARK   62  A    between atoms: _140  and  _142
REMARK   63  A    between atoms: _142  and  _143
REMARK   64  A    between atoms: _145  and  _147
REMARK   65  A    between atoms: _147  and  _148
REMARK   66  A    between atoms: _150  and  _152
REMARK   67  A    between atoms: _152  and  _153
REMARK   68  A    between atoms: _152  and  _155
REMARK   69  A    between atoms: _155  and  _156
REMARK   70  A    between atoms: _159  and  _161
REMARK   71  A    between atoms: _161  and  _162
REMARK   72  A    between atoms: _164  and  _166
REMARK   73  A    between atoms: _166  and  _167
REMARK   74  A    between atoms: _169  and  _171
REMARK   75  A    between atoms: _171  and  _172
REMARK   76  A    between atoms: _171  and  _174
REMARK   77  A    between atoms: _174  and  _175
REMARK   78  A    between atoms: _181  and  _183
REMARK   79  A    between atoms: _183  and  _184
REMARK   80  A    between atoms: _183  and  _186
REMARK   81  A    between atoms: _186  and  _187
REMARK   82  A    between atoms: _190  and  _192
REMARK   83  A    between atoms: _192  and  _193
REMARK   84  A    between atoms: _192  and  _195
REMARK   85  A    between atoms: _195  and  _196
REMARK   86  A    between atoms: _199  and  _201
REMARK   87  A    between atoms: _201  and  _202
REMARK   88  A    between atoms: _201  and  _204
REMARK   89  A    between atoms: _204  and  _205
REMARK   90  A    between atoms: _209  and  _210
REMARK   91  A    between atoms: _215  and  _217
REMARK   92  A    between atoms: _217  and  _218
REMARK   93  A    between atoms: _217  and  _220
REMARK   94  A    between atoms: _223  and  _225
REMARK   95  A    between atoms: _225  and  _226
REMARK   96  A    between atoms: _225  and  _228
REMARK   97  A    between atoms: _228  and  _229
REMARK   98  A    between atoms: _234  and  _236
REMARK   99  A    between atoms: _236  and  _237
REMARK  100  A    between atoms: _236  and  _239
REMARK  101  A    between atoms: _239  and  _240
REMARK  102  A    between atoms: _243  and  _245
REMARK  103  A    between atoms: _245  and  _246
REMARK  104  A    between atoms: _245  and  _248
REMARK  105  A    between atoms: _248  and  _249
REMARK  106  A    between atoms: _252  and  _254
REMARK  107  A    between atoms: _254  and  _255
REMARK  108  A    between atoms: _257  and  _259
REMARK  109  A    between atoms: _259  and  _260
REMARK  110  A    between atoms: _259  and  _262
REMARK  111  A    between atoms: _262  and  _263
REMARK  112  A    between atoms: _263  and  _264
REMARK  113  A    between atoms: _264  and  _265
REMARK  114  A    between atoms: _274  and  _276
REMARK  115  A    between atoms: _276  and  _277
REMARK  116  A    between atoms: _276  and  _279
REMARK  117  A    between atoms: _279  and  _280
REMARK  118  A    between atoms: _283  and  _285
REMARK  119  A    between atoms: _285  and  _286
REMARK  120  A    between atoms: _285  and  _288
REMARK  121  A    between atoms: _288  and  _289
REMARK  122  A    between atoms: _289  and  _290
REMARK  123  A    between atoms: _290  and  _291
REMARK  124  A    between atoms: _300  and  _302
REMARK  125  A    between atoms: _302  and  _303
REMARK  126  A    between atoms: _302  and  _305
REMARK  127  A    between atoms: _305  and  _306
REMARK  128  A    between atoms: _309  and  _311
REMARK  129  A    between atoms: _311  and  _312
REMARK  130  A    between atoms: _311  and  _314
REMARK  131  A    between atoms: _314  and  _315
REMARK  132  A    between atoms: _318  and  _320
REMARK  133  A    between atoms: _320  and  _321
REMARK  134  A    between atoms: _320  and  _323
REMARK  135  A    between atoms: _323  and  _324
REMARK  136  A    between atoms: _327  and  _329
REMARK  137  A    between atoms: _329  and  _330
REMARK  138  A    between atoms: _329  and  _332
REMARK  139  A    between atoms: _332  and  _333
REMARK  140  A    between atoms: _336  and  _338
REMARK  141  A    between atoms: _338  and  _339
REMARK  142  A    between atoms: _341  and  _343
REMARK  143  A    between atoms: _343  and  _344
REMARK  144  A    between atoms: _347  and  _349
REMARK  145  A    between atoms: _349  and  _350
REMARK  146  A    between atoms: _349  and  _352
REMARK  147  A    between atoms: _352  and  _353
REMARK  148  A    between atoms: _356  and  _358
REMARK  149  A    between atoms: _358  and  _359
REMARK  150  A    between atoms: _358  and  _361
REMARK  151  A    between atoms: _361  and  _362
REMARK  152  A    between atoms: _365  and  _367
REMARK  153  A    between atoms: _367  and  _368
REMARK  154  A    between atoms: _367  and  _370
REMARK  155  A    between atoms: _370  and  _371
REMARK  156  A    between atoms: _374  and  _376
REMARK  157  A    between atoms: _376  and  _377
REMARK  158  A    between atoms: _376  and  _379
REMARK  159  A    between atoms: _382  and  _384
REMARK  160  A    between atoms: _384  and  _385
REMARK  161  A    between atoms: _384  and  _387
REMARK  162  A    between atoms: _387  and  _388
REMARK  163  A    between atoms: _388  and  _389
REMARK  164  A    between atoms: _389  and  _390
REMARK  165  A    between atoms: _390  and  _391
REMARK  166  A    between atoms: _395  and  _397
REMARK  167  A    between atoms: _397  and  _398
REMARK  168  A    between atoms: _397  and  _400
REMARK  169  A    between atoms: _400  and  _401
REMARK  170  A    between atoms: _401  and  _402
REMARK  171  A    between atoms: _404  and  _406
REMARK  172  A    between atoms: _406  and  _407
REMARK  173  A    between atoms: _406  and  _409
REMARK  174  A    between atoms: _409  and  _410
REMARK  175  A    between atoms: _413  and  _415
REMARK  176  A    between atoms: _415  and  _416
REMARK  177  A    between atoms: _418  and  _420
REMARK  178  A    between atoms: _420  and  _421
REMARK  179  A    between atoms: _423  and  _425
REMARK  180  A    between atoms: _425  and  _426
REMARK  181  A    between atoms: _425  and  _428
REMARK  182  A    between atoms: _428  and  _429
REMARK  183  A    between atoms: _432  and  _434
REMARK  184  A    between atoms: _434  and  _435
REMARK  185  A    between atoms: _437  and  _439
REMARK  186  A    between atoms: _439  and  _440
REMARK  187  A    between atoms: _442  and  _444
REMARK  188  A    between atoms: _444  and  _445
REMARK  189  A    between atoms: _444  and  _447
REMARK  190  A    between atoms: _447  and  _448
REMARK  191  A    between atoms: _454  and  _456
REMARK  192  A    between atoms: _456  and  _457
REMARK  193  A    between atoms: _456  and  _459
REMARK  194  A    between atoms: _459  and  _460
REMARK  195  A    between atoms: _463  and  _465
REMARK  196  A    between atoms: _465  and  _466
REMARK  197  A    between atoms: _465  and  _468
REMARK  198  A    between atoms: _471  and  _473
REMARK  199  A    between atoms: _473  and  _474
REMARK  200  A    between atoms: _473  and  _476
REMARK  201  A    between atoms: _476  and  _477
REMARK  202  A    between atoms: _481  and  _482
REMARK  203  A    between atoms: _487  and  _489
REMARK  204  A    between atoms: _489  and  _490
REMARK  205  A    between atoms: _489  and  _492
REMARK  206  A    between atoms: _492  and  _493
REMARK  207  A    between atoms: _497  and  _498
REMARK  208  A    between atoms: _503  and  _505
REMARK  209  A    between atoms: _505  and  _506
REMARK  210  A    between atoms: _505  and  _508
REMARK  211  A    between atoms: _511  and  _513
REMARK  212  A    between atoms: _513  and  _514
REMARK  213  A    between atoms: _513  and  _516
REMARK  214  A    between atoms: _516  and  _517
REMARK  215  A    between atoms: _522  and  _524
REMARK  216  A    between atoms: _524  and  _525
REMARK  217  A    between atoms: _524  and  _527
REMARK  218  A    between atoms: _527  and  _528
REMARK  219  A    between atoms: _531  and  _533
REMARK  220  A    between atoms: _533  and  _534
REMARK  221  A    between atoms: _533  and  _536
REMARK  222  A    between atoms: _536  and  _537
REMARK  223  A    between atoms: _540  and  _542
REMARK  224  A    between atoms: _542  and  _543
REMARK  225  A    between atoms: _545  and  _547
REMARK  226  A    between atoms: _547  and  _548
REMARK  227  A    between atoms: _547  and  _550
REMARK  228  A    between atoms: _550  and  _551
REMARK  229  A    between atoms: _551  and  _552
REMARK  230  A    between atoms: _552  and  _553
REMARK  231  A    between atoms: _562  and  _564
REMARK  232  A    between atoms: _564  and  _565
REMARK  233  A    between atoms: _564  and  _567
REMARK  234  A    between atoms: _567  and  _568
REMARK                            x       y       z     vdW  Elec       q    Type
REMARK                         _______ _______ _______ _____ _____    ______ ____
ROOT
ATOM      1  O   HOH     1      17.559  27.019  13.601  0.00  0.00    +0.000 OA
ENDROOT
TORSDOF 0
REMARK  Name = ../refined-set-2016/3vfb/3vfb_pocket.pdb
REMARK  234 active torsions:
REMARK  status: ('A' for Active; 'I' for Inactive)
REMARK    1  A    between atoms: _1  and  _3
REMARK    2  A    between atoms: _3  and  _4
REMARK    3  A    between atoms: _3  and  _6
REMARK    4  A    between atoms: _6  and  _7
REMARK    5  A    between atoms: _7  and  _8
REMARK    6  A    between atoms: _8  and  _9
REMARK    7  A    between atoms: _18  and  _20
REMARK    8  A    between atoms: _20  and  _21
REMARK    9  A    between atoms: _20  and  _23
REMARK   10  A    between atoms: _23  and  _24
REMARK   11  A    between atoms: _27  and  _29
REMARK   12  A    between atoms: _29  and  _30
REMARK   13  A    between atoms: _29  and  _32
REMARK   14  A    between atoms: _32  and  _33
REMARK   15  A    between atoms: _36  and  _38
REMARK   16  A    between atoms: _38  and  _39
REMARK   17  A    between atoms: _38  and  _41
REMARK   18  A    between atoms: _41  and  _42
REMARK   19  A    between atoms: _45  and  _47
REMARK   20  A    between atoms: _47  and  _48
REMARK   21  A    between atoms: _47  and  _50
REMARK   22  A    between atoms: _50  and  _51
REMARK   23  A    between atoms: _54  and  _56
REMARK   24  A    between atoms: _56  and  _57
REMARK   25  A    between atoms: _56  and  _59
REMARK   26  A    between atoms: _59  and  _60
REMARK   27  A    between atoms: _63  and  _65
REMARK   28  A    between atoms: _65  and  _66
REMARK   29  A    between atoms: _68  and  _70
REMARK   30  A    between atoms: _70  and  _71
REMARK   31  A    between atoms: _74  and  _76
REMARK   32  A    between atoms: _76  and  _77
REMARK   33  A    between atoms: _76  and  _79
REMARK   34  A    between atoms: _79  and  _80
REMARK   35  A    between atoms: _83  and  _85
REMARK   36  A    between atoms: _85  and  _86
REMARK   37  A    between atoms: _85  and  _88
REMARK   38  A    between atoms: _88  and  _89
REMARK   39  A    between atoms: _92  and  _94
REMARK   40  A    between atoms: _94  and  _95
REMARK   41  A    between atoms: _94  and  _97
REMARK   42  A    between atoms: _97  and  _98
REMARK   43  A    between atoms: _101  and  _103
REMARK   44  A    between atoms: _103  and  _104
REMARK   45  A    between atoms: _103  and  _106
REMARK   46  A    between atoms: _109  and  _111
REMARK   47  A    between atoms: _111  and  _112
REMARK   48  A    between atoms: _111  and  _114
REMARK   49  A    between atoms: _114  and  _115
REMARK   50  A    between atoms: _115  and  _116
REMARK   51  A    between atoms: _116  and  _117
REMARK   52  A    between atoms: _117  and  _118
REMARK   53  A    between atoms: _122  and  _124
REMARK   54  A    between atoms: _124  and  _125
REMARK   55  A    between atoms: _124  and  _127
REMARK   56  A    between atoms: _127  and  _128
REMARK   57  A    between atoms: _128  and  _129
REMARK   58  A    between atoms: _131  and  _133
REMARK   59  A    between atoms: _133  and  _134
REMARK   60  A    between atoms: _133  and  _136
REMARK   61  A    between atoms: _136  and  _137
REMARK   62  A    between atoms: _140  and  _142
REMARK   63  A    between atoms: _142  and  _143
REMARK   64  A    between atoms: _145  and  _147
REMARK   65  A    between atoms: _147  and  _148
REMARK   66  A    between atoms: _150  and  _152
REMARK   67  A    between atoms: _152  and  _153
REMARK   68  A    between atoms: _152  and  _155
REMARK   69  A    between atoms: _155  and  _156
REMARK   70  A    between atoms: _159  and  _161
REMARK   71  A    between atoms: _161  and  _162
REMARK   72  A    between atoms: _164  and  _166
REMARK   73  A    between atoms: _166  and  _167
REMARK   74  A    between atoms: _169  and  _171
REMARK   75  A    between atoms: _171  and  _172
REMARK   76  A    between atoms: _171  and  _174
REMARK   77  A    between atoms: _174  and  _175
REMARK   78  A    between atoms: _181  and  _183
REMARK   79  A    between atoms: _183  and  _184
REMARK   80  A    between atoms: _183  and  _186
REMARK   81  A    between atoms: _186  and  _187
REMARK   82  A    between atoms: _190  and  _192
REMARK   83  A    between atoms: _192  and  _193
REMARK   84  A    between atoms: _192  and  _195
REMARK   85  A    between atoms: _195  and  _196
REMARK   86  A    between atoms: _199  and  _201
REMARK   87  A    between atoms: _201  and  _202
REMARK   88  A    between atoms: _201  and  _204
REMARK   89  A    between atoms: _204  and  _205
REMARK   90  A    between atoms: _209  and  _210
REMARK   91  A    between atoms: _215  and  _217
REMARK   92  A    between atoms: _217  and  _218
REMARK   93  A    between atoms: _217  and  _220
REMARK   94  A    between atoms: _223  and  _225
REMARK   95  A    between atoms: _225  and  _226
REMARK   96  A    between atoms: _225  and  _228
REMARK   97  A    between atoms: _228  and  _229
REMARK   98  A    between atoms: _234  and  _236
REMARK   99  A    between atoms: _236  and  _237
REMARK  100  A    between atoms: _236  and  _239
REMARK  101  A    between atoms: _239  and  _240
REMARK  102  A    between atoms: _243  and  _245
REMARK  103  A    between atoms: _245  and  _246
REMARK  104  A    between atoms: _245  and  _248
REMARK  105  A    between atoms: _248  and  _249
REMARK  106  A    between atoms: _252  and  _254
REMARK  107  A    between atoms: _254  and  _255
REMARK  108  A    between atoms: _257  and  _259
REMARK  109  A    between atoms: _259  and  _260
REMARK  110  A    between atoms: _259  and  _262
REMARK  111  A    between atoms: _262  and  _263
REMARK  112  A    between atoms: _263  and  _264
REMARK  113  A    between atoms: _264  and  _265
REMARK  114  A    between atoms: _274  and  _276
REMARK  115  A    between atoms: _276  and  _277
REMARK  116  A    between atoms: _276  and  _279
REMARK  117  A    between atoms: _279  and  _280
REMARK  118  A    between atoms: _283  and  _285
REMARK  119  A    between atoms: _285  and  _286
REMARK  120  A    between atoms: _285  and  _288
REMARK  121  A    between atoms: _288  and  _289
REMARK  122  A    between atoms: _289  and  _290
REMARK  123  A    between atoms: _290  and  _291
REMARK  124  A    between atoms: _300  and  _302
REMARK  125  A    between atoms: _302  and  _303
REMARK  126  A    between atoms: _302  and  _305
REMARK  127  A    between atoms: _305  and  _306
REMARK  128  A    between atoms: _309  and  _311
REMARK  129  A    between atoms: _311  and  _312
REMARK  130  A    between atoms: _311  and  _314
REMARK  131  A    between atoms: _314  and  _315
REMARK  132  A    between atoms: _318  and  _320
REMARK  133  A    between atoms: _320  and  _321
REMARK  134  A    between atoms: _320  and  _323
REMARK  135  A    between atoms: _323  and  _324
REMARK  136  A    between atoms: _327  and  _329
REMARK  137  A    between atoms: _329  and  _330
REMARK  138  A    between atoms: _329  and  _332
REMARK  139  A    between atoms: _332  and  _333
REMARK  140  A    between atoms: _336  and  _338
REMARK  141  A    between atoms: _338  and  _339
REMARK  142  A    between atoms: _341  and  _343
REMARK  143  A    between atoms: _343  and  _344
REMARK  144  A    between atoms: _347  and  _349
REMARK  145  A    between atoms: _349  and  _350
REMARK  146  A    between atoms: _349  and  _352
REMARK  147  A    between atoms: _352  and  _353
REMARK  148  A    between atoms: _356  and  _358
REMARK  149  A    between atoms: _358  and  _359
REMARK  150  A    between atoms: _358  and  _361
REMARK  151  A    between atoms: _361  and  _362
REMARK  152  A    between atoms: _365  and  _367
REMARK  153  A    between atoms: _367  and  _368
REMARK  154  A    between atoms: _367  and  _370
REMARK  155  A    between atoms: _370  and  _371
REMARK  156  A    between atoms: _374  and  _376
REMARK  157  A    between atoms: _376  and  _377
REMARK  158  A    between atoms: _376  and  _379
REMARK  159  A    between atoms: _382  and  _384
REMARK  160  A    between atoms: _384  and  _385
REMARK  161  A    between atoms: _384  and  _387
REMARK  162  A    between atoms: _387  and  _388
REMARK  163  A    between atoms: _388  and  _389
REMARK  164  A    between atoms: _389  and  _390
REMARK  165  A    between atoms: _390  and  _391
REMARK  166  A    between atoms: _395  and  _397
REMARK  167  A    between atoms: _397  and  _398
REMARK  168  A    between atoms: _397  and  _400
REMARK  169  A    between atoms: _400  and  _401
REMARK  170  A    between atoms: _401  and  _402
REMARK  171  A    between atoms: _404  and  _406
REMARK  172  A    between atoms: _406  and  _407
REMARK  173  A    between atoms: _406  and  _409
REMARK  174  A    between atoms: _409  and  _410
REMARK  175  A    between atoms: _413  and  _415
REMARK  176  A    between atoms: _415  and  _416
REMARK  177  A    between atoms: _418  and  _420
REMARK  178  A    between atoms: _420  and  _421
REMARK  179  A    between atoms: _423  and  _425
REMARK  180  A    between atoms: _425  and  _426
REMARK  181  A    between atoms: _425  and  _428
REMARK  182  A    between atoms: _428  and  _429
REMARK  183  A    between atoms: _432  and  _434
REMARK  184  A    between atoms: _434  and  _435
REMARK  185  A    between atoms: _437  and  _439
REMARK  186  A    between atoms: _439  and  _440
REMARK  187  A    between atoms: _442  and  _444
REMARK  188  A    between atoms: _444  and  _445
REMARK  189  A    between atoms: _444  and  _447
REMARK  190  A    between atoms: _447  and  _448
REMARK  191  A    between atoms: _454  and  _456
REMARK  192  A    between atoms: _456  and  _457
REMARK  193  A    between atoms: _456  and  _459
REMARK  194  A    between atoms: _459  and  _460
REMARK  195  A    between atoms: _463  and  _465
REMARK  196  A    between atoms: _465  and  _466
REMARK  197  A    between atoms: _465  and  _468
REMARK  198  A    between atoms: _471  and  _473
REMARK  199  A    between atoms: _473  and  _474
REMARK  200  A    between atoms: _473  and  _476
REMARK  201  A    between atoms: _476  and  _477
REMARK  202  A    between atoms: _481  and  _482
REMARK  203  A    between atoms: _487  and  _489
REMARK  204  A    between atoms: _489  and  _490
REMARK  205  A    between atoms: _489  and  _492
REMARK  206  A    between atoms: _492  and  _493
REMARK  207  A    between atoms: _497  and  _498
REMARK  208  A    between atoms: _503  and  _505
REMARK  209  A    between atoms: _505  and  _506
REMARK  210  A    between atoms: _505  and  _508
REMARK  211  A    between atoms: _511  and  _513
REMARK  212  A    between atoms: _513  and  _514
REMARK  213  A    between atoms: _513  and  _516
REMARK  214  A    between atoms: _516  and  _517
REMARK  215  A    between atoms: _522  and  _524
REMARK  216  A    between atoms: _524  and  _525
REMARK  217  A    between atoms: _524  and  _527
REMARK  218  A    between atoms: _527  and  _528
REMARK  219  A    between atoms: _531  and  _533
REMARK  220  A    between atoms: _533  and  _534
REMARK  221  A    between atoms: _533  and  _536
REMARK  222  A    between atoms: _536  and  _537
REMARK  223  A    between atoms: _540  and  _542
REMARK  224  A    between atoms: _542  and  _543
REMARK  225  A    between atoms: _545  and  _547
REMARK  226  A    between atoms: _547  and  _548
REMARK  227  A    between atoms: _547  and  _550
REMARK  228  A    between atoms: _550  and  _551
REMARK  229  A    between atoms: _551  and  _552
REMARK  230  A    between atoms: _552  and  _553
REMARK  231  A    between atoms: _562  and  _564
REMARK  232  A    between atoms: _564  and  _565
REMARK  233  A    between atoms: _564  and  _567
REMARK  234  A    between atoms: _567  and  _568
REMARK                            x       y       z     vdW  Elec       q    Type
REMARK                         _______ _______ _______ _____ _____    ______ ____
ROOT
ATOM      1  O   HOH     1      12.289  27.669   9.252  0.00  0.00    +0.000 OA
ENDROOT
TORSDOF 0
REMARK  Name = ../refined-set-2016/3vfb/3vfb_pocket.pdb
REMARK  234 active torsions:
REMARK  status: ('A' for Active; 'I' for Inactive)
REMARK    1  A    between atoms: _1  and  _3
REMARK    2  A    between atoms: _3  and  _4
REMARK    3  A    between atoms: _3  and  _6
REMARK    4  A    between atoms: _6  and  _7
REMARK    5  A    between atoms: _7  and  _8
REMARK    6  A    between atoms: _8  and  _9
REMARK    7  A    between atoms: _18  and  _20
REMARK    8  A    between atoms: _20  and  _21
REMARK    9  A    between atoms: _20  and  _23
REMARK   10  A    between atoms: _23  and  _24
REMARK   11  A    between atoms: _27  and  _29
REMARK   12  A    between atoms: _29  and  _30
REMARK   13  A    between atoms: _29  and  _32
REMARK   14  A    between atoms: _32  and  _33
REMARK   15  A    between atoms: _36  and  _38
REMARK   16  A    between atoms: _38  and  _39
REMARK   17  A    between atoms: _38  and  _41
REMARK   18  A    between atoms: _41  and  _42
REMARK   19  A    between atoms: _45  and  _47
REMARK   20  A    between atoms: _47  and  _48
REMARK   21  A    between atoms: _47  and  _50
REMARK   22  A    between atoms: _50  and  _51
REMARK   23  A    between atoms: _54  and  _56
REMARK   24  A    between atoms: _56  and  _57
REMARK   25  A    between atoms: _56  and  _59
REMARK   26  A    between atoms: _59  and  _60
REMARK   27  A    between atoms: _63  and  _65
REMARK   28  A    between atoms: _65  and  _66
REMARK   29  A    between atoms: _68  and  _70
REMARK   30  A    between atoms: _70  and  _71
REMARK   31  A    between atoms: _74  and  _76
REMARK   32  A    between atoms: _76  and  _77
REMARK   33  A    between atoms: _76  and  _79
REMARK   34  A    between atoms: _79  and  _80
REMARK   35  A    between atoms: _83  and  _85
REMARK   36  A    between atoms: _85  and  _86
REMARK   37  A    between atoms: _85  and  _88
REMARK   38  A    between atoms: _88  and  _89
REMARK   39  A    between atoms: _92  and  _94
REMARK   40  A    between atoms: _94  and  _95
REMARK   41  A    between atoms: _94  and  _97
REMARK   42  A    between atoms: _97  and  _98
REMARK   43  A    between atoms: _101  and  _103
REMARK   44  A    between atoms: _103  and  _104
REMARK   45  A    between atoms: _103  and  _106
REMARK   46  A    between atoms: _109  and  _111
REMARK   47  A    between atoms: _111  and  _112
REMARK   48  A    between atoms: _111  and  _114
REMARK   49  A    between atoms: _114  and  _115
REMARK   50  A    between atoms: _115  and  _116
REMARK   51  A    between atoms: _116  and  _117
REMARK   52  A    between atoms: _117  and  _118
REMARK   53  A    between atoms: _122  and  _124
REMARK   54  A    between atoms: _124  and  _125
REMARK   55  A    between atoms: _124  and  _127
REMARK   56  A    between atoms: _127  and  _128
REMARK   57  A    between atoms: _128  and  _129
REMARK   58  A    between atoms: _131  and  _133
REMARK   59  A    between atoms: _133  and  _134
REMARK   60  A    between atoms: _133  and  _136
REMARK   61  A    between atoms: _136  and  _137
REMARK   62  A    between atoms: _140  and  _142
REMARK   63  A    between atoms: _142  and  _143
REMARK   64  A    between atoms: _145  and  _147
REMARK   65  A    between atoms: _147  and  _148
REMARK   66  A    between atoms: _150  and  _152
REMARK   67  A    between atoms: _152  and  _153
REMARK   68  A    between atoms: _152  and  _155
REMARK   69  A    between atoms: _155  and  _156
REMARK   70  A    between atoms: _159  and  _161
REMARK   71  A    between atoms: _161  and  _162
REMARK   72  A    between atoms: _164  and  _166
REMARK   73  A    between atoms: _166  and  _167
REMARK   74  A    between atoms: _169  and  _171
REMARK   75  A    between atoms: _171  and  _172
REMARK   76  A    between atoms: _171  and  _174
REMARK   77  A    between atoms: _174  and  _175
REMARK   78  A    between atoms: _181  and  _183
REMARK   79  A    between atoms: _183  and  _184
REMARK   80  A    between atoms: _183  and  _186
REMARK   81  A    between atoms: _186  and  _187
REMARK   82  A    between atoms: _190  and  _192
REMARK   83  A    between atoms: _192  and  _193
REMARK   84  A    between atoms: _192  and  _195
REMARK   85  A    between atoms: _195  and  _196
REMARK   86  A    between atoms: _199  and  _201
REMARK   87  A    between atoms: _201  and  _202
REMARK   88  A    between atoms: _201  and  _204
REMARK   89  A    between atoms: _204  and  _205
REMARK   90  A    between atoms: _209  and  _210
REMARK   91  A    between atoms: _215  and  _217
REMARK   92  A    between atoms: _217  and  _218
REMARK   93  A    between atoms: _217  and  _220
REMARK   94  A    between atoms: _223  and  _225
REMARK   95  A    between atoms: _225  and  _226
REMARK   96  A    between atoms: _225  and  _228
REMARK   97  A    between atoms: _228  and  _229
REMARK   98  A    between atoms: _234  and  _236
REMARK   99  A    between atoms: _236  and  _237
REMARK  100  A    between atoms: _236  and  _239
REMARK  101  A    between atoms: _239  and  _240
REMARK  102  A    between atoms: _243  and  _245
REMARK  103  A    between atoms: _245  and  _246
REMARK  104  A    between atoms: _245  and  _248
REMARK  105  A    between atoms: _248  and  _249
REMARK  106  A    between atoms: _252  and  _254
REMARK  107  A    between atoms: _254  and  _255
REMARK  108  A    between atoms: _257  and  _259
REMARK  109  A    between atoms: _259  and  _260
REMARK  110  A    between atoms: _259  and  _262
REMARK  111  A    between atoms: _262  and  _263
REMARK  112  A    between atoms: _263  and  _264
REMARK  113  A    between atoms: _264  and  _265
REMARK  114  A    between atoms: _274  and  _276
REMARK  115  A    between atoms: _276  and  _277
REMARK  116  A    between atoms: _276  and  _279
REMARK  117  A    between atoms: _279  and  _280
REMARK  118  A    between atoms: _283  and  _285
REMARK  119  A    between atoms: _285  and  _286
REMARK  120  A    between atoms: _285  and  _288
REMARK  121  A    between atoms: _288  and  _289
REMARK  122  A    between atoms: _289  and  _290
REMARK  123  A    between atoms: _290  and  _291
REMARK  124  A    between atoms: _300  and  _302
REMARK  125  A    between atoms: _302  and  _303
REMARK  126  A    between atoms: _302  and  _305
REMARK  127  A    between atoms: _305  and  _306
REMARK  128  A    between atoms: _309  and  _311
REMARK  129  A    between atoms: _311  and  _312
REMARK  130  A    between atoms: _311  and  _314
REMARK  131  A    between atoms: _314  and  _315
REMARK  132  A    between atoms: _318  and  _320
REMARK  133  A    between atoms: _320  and  _321
REMARK  134  A    between atoms: _320  and  _323
REMARK  135  A    between atoms: _323  and  _324
REMARK  136  A    between atoms: _327  and  _329
REMARK  137  A    between atoms: _329  and  _330
REMARK  138  A    between atoms: _329  and  _332
REMARK  139  A    between atoms: _332  and  _333
REMARK  140  A    between atoms: _336  and  _338
REMARK  141  A    between atoms: _338  and  _339
REMARK  142  A    between atoms: _341  and  _343
REMARK  143  A    between atoms: _343  and  _344
REMARK  144  A    between atoms: _347  and  _349
REMARK  145  A    between atoms: _349  and  _350
REMARK  146  A    between atoms: _349  and  _352
REMARK  147  A    between atoms: _352  and  _353
REMARK  148  A    between atoms: _356  and  _358
REMARK  149  A    between atoms: _358  and  _359
REMARK  150  A    between atoms: _358  and  _361
REMARK  151  A    between atoms: _361  and  _362
REMARK  152  A    between atoms: _365  and  _367
REMARK  153  A    between atoms: _367  and  _368
REMARK  154  A    between atoms: _367  and  _370
REMARK  155  A    between atoms: _370  and  _371
REMARK  156  A    between atoms: _374  and  _376
REMARK  157  A    between atoms: _376  and  _377
REMARK  158  A    between atoms: _376  and  _379
REMARK  159  A    between atoms: _382  and  _384
REMARK  160  A    between atoms: _384  and  _385
REMARK  161  A    between atoms: _384  and  _387
REMARK  162  A    between atoms: _387  and  _388
REMARK  163  A    between atoms: _388  and  _389
REMARK  164  A    between atoms: _389  and  _390
REMARK  165  A    between atoms: _390  and  _391
REMARK  166  A    between atoms: _395  and  _397
REMARK  167  A    between atoms: _397  and  _398
REMARK  168  A    between atoms: _397  and  _400
REMARK  169  A    between atoms: _400  and  _401
REMARK  170  A    between atoms: _401  and  _402
REMARK  171  A    between atoms: _404  and  _406
REMARK  172  A    between atoms: _406  and  _407
REMARK  173  A    between atoms: _406  and  _409
REMARK  174  A    between atoms: _409  and  _410
REMARK  175  A    between atoms: _413  and  _415
REMARK  176  A    between atoms: _415  and  _416
REMARK  177  A    between atoms: _418  and  _420
REMARK  178  A    between atoms: _420  and  _421
REMARK  179  A    between atoms: _423  and  _425
REMARK  180  A    between atoms: _425  and  _426
REMARK  181  A    between atoms: _425  and  _428
REMARK  182  A    between atoms: _428  and  _429
REMARK  183  A    between atoms: _432  and  _434
REMARK  184  A    between atoms: _434  and  _435
REMARK  185  A    between atoms: _437  and  _439
REMARK  186  A    between atoms: _439  and  _440
REMARK  187  A    between atoms: _442  and  _444
REMARK  188  A    between atoms: _444  and  _445
REMARK  189  A    between atoms: _444  and  _447
REMARK  190  A    between atoms: _447  and  _448
REMARK  191  A    between atoms: _454  and  _456
REMARK  192  A    between atoms: _456  and  _457
REMARK  193  A    between atoms: _456  and  _459
REMARK  194  A    between atoms: _459  and  _460
REMARK  195  A    between atoms: _463  and  _465
REMARK  196  A    between atoms: _465  and  _466
REMARK  197  A    between atoms: _465  and  _468
REMARK  198  A    between atoms: _471  and  _473
REMARK  199  A    between atoms: _473  and  _474
REMARK  200  A    between atoms: _473  and  _476
REMARK  201  A    between atoms: _476  and  _477
REMARK  202  A    between atoms: _481  and  _482
REMARK  203  A    between atoms: _487  and  _489
REMARK  204  A    between atoms: _489  and  _490
REMARK  205  A    between atoms: _489  and  _492
REMARK  206  A    between atoms: _492  and  _493
REMARK  207  A    between atoms: _497  and  _498
REMARK  208  A    between atoms: _503  and  _505
REMARK  209  A    between atoms: _505  and  _506
REMARK  210  A    between atoms: _505  and  _508
REMARK  211  A    between atoms: _511  and  _513
REMARK  212  A    between atoms: _513  and  _514
REMARK  213  A    between atoms: _513  and  _516
REMARK  214  A    between atoms: _516  and  _517
REMARK  215  A    between atoms: _522  and  _524
REMARK  216  A    between atoms: _524  and  _525
REMARK  217  A    between atoms: _524  and  _527
REMARK  218  A    between atoms: _527  and  _528
REMARK  219  A    between atoms: _531  and  _533
REMARK  220  A    between atoms: _533  and  _534
REMARK  221  A    between atoms: _533  and  _536
REMARK  222  A    between atoms: _536  and  _537
REMARK  223  A    between atoms: _540  and  _542
REMARK  224  A    between atoms: _542  and  _543
REMARK  225  A    between atoms: _545  and  _547
REMARK  226  A    between atoms: _547  and  _548
REMARK  227  A    between atoms: _547  and  _550
REMARK  228  A    between atoms: _550  and  _551
REMARK  229  A    between atoms: _551  and  _552
REMARK  230  A    between atoms: _552  and  _553
REMARK  231  A    between atoms: _562  and  _564
REMARK  232  A    between atoms: _564  and  _565
REMARK  233  A    between atoms: _564  and  _567
REMARK  234  A    between atoms: _567  and  _568
REMARK                            x       y       z     vdW  Elec       q    Type
REMARK                         _______ _______ _______ _____ _____    ______ ____
ROOT
ATOM      1  O   HOH     1       7.241  19.664  29.344  0.00  0.00    +0.000 OA
ENDROOT
TORSDOF 0
REMARK  Name = ../refined-set-2016/3vfb/3vfb_pocket.pdb
REMARK  234 active torsions:
REMARK  status: ('A' for Active; 'I' for Inactive)
REMARK    1  A    between atoms: _1  and  _3
REMARK    2  A    between atoms: _3  and  _4
REMARK    3  A    between atoms: _3  and  _6
REMARK    4  A    between atoms: _6  and  _7
REMARK    5  A    between atoms: _7  and  _8
REMARK    6  A    between atoms: _8  and  _9
REMARK    7  A    between atoms: _18  and  _20
REMARK    8  A    between atoms: _20  and  _21
REMARK    9  A    between atoms: _20  and  _23
REMARK   10  A    between atoms: _23  and  _24
REMARK   11  A    between atoms: _27  and  _29
REMARK   12  A    between atoms: _29  and  _30
REMARK   13  A    between atoms: _29  and  _32
REMARK   14  A    between atoms: _32  and  _33
REMARK   15  A    between atoms: _36  and  _38
REMARK   16  A    between atoms: _38  and  _39
REMARK   17  A    between atoms: _38  and  _41
REMARK   18  A    between atoms: _41  and  _42
REMARK   19  A    between atoms: _45  and  _47
REMARK   20  A    between atoms: _47  and  _48
REMARK   21  A    between atoms: _47  and  _50
REMARK   22  A    between atoms: _50  and  _51
REMARK   23  A    between atoms: _54  and  _56
REMARK   24  A    between atoms: _56  and  _57
REMARK   25  A    between atoms: _56  and  _59
REMARK   26  A    between atoms: _59  and  _60
REMARK   27  A    between atoms: _63  and  _65
REMARK   28  A    between atoms: _65  and  _66
REMARK   29  A    between atoms: _68  and  _70
REMARK   30  A    between atoms: _70  and  _71
REMARK   31  A    between atoms: _74  and  _76
REMARK   32  A    between atoms: _76  and  _77
REMARK   33  A    between atoms: _76  and  _79
REMARK   34  A    between atoms: _79  and  _80
REMARK   35  A    between atoms: _83  and  _85
REMARK   36  A    between atoms: _85  and  _86
REMARK   37  A    between atoms: _85  and  _88
REMARK   38  A    between atoms: _88  and  _89
REMARK   39  A    between atoms: _92  and  _94
REMARK   40  A    between atoms: _94  and  _95
REMARK   41  A    between atoms: _94  and  _97
REMARK   42  A    between atoms: _97  and  _98
REMARK   43  A    between atoms: _101  and  _103
REMARK   44  A    between atoms: _103  and  _104
REMARK   45  A    between atoms: _103  and  _106
REMARK   46  A    between atoms: _109  and  _111
REMARK   47  A    between atoms: _111  and  _112
REMARK   48  A    between atoms: _111  and  _114
REMARK   49  A    between atoms: _114  and  _115
REMARK   50  A    between atoms: _115  and  _116
REMARK   51  A    between atoms: _116  and  _117
REMARK   52  A    between atoms: _117  and  _118
REMARK   53  A    between atoms: _122  and  _124
REMARK   54  A    between atoms: _124  and  _125
REMARK   55  A    between atoms: _124  and  _127
REMARK   56  A    between atoms: _127  and  _128
REMARK   57  A    between atoms: _128  and  _129
REMARK   58  A    between atoms: _131  and  _133
REMARK   59  A    between atoms: _133  and  _134
REMARK   60  A    between atoms: _133  and  _136
REMARK   61  A    between atoms: _136  and  _137
REMARK   62  A    between atoms: _140  and  _142
REMARK   63  A    between atoms: _142  and  _143
REMARK   64  A    between atoms: _145  and  _147
REMARK   65  A    between atoms: _147  and  _148
REMARK   66  A    between atoms: _150  and  _152
REMARK   67  A    between atoms: _152  and  _153
REMARK   68  A    between atoms: _152  and  _155
REMARK   69  A    between atoms: _155  and  _156
REMARK   70  A    between atoms: _159  and  _161
REMARK   71  A    between atoms: _161  and  _162
REMARK   72  A    between atoms: _164  and  _166
REMARK   73  A    between atoms: _166  and  _167
REMARK   74  A    between atoms: _169  and  _171
REMARK   75  A    between atoms: _171  and  _172
REMARK   76  A    between atoms: _171  and  _174
REMARK   77  A    between atoms: _174  and  _175
REMARK   78  A    between atoms: _181  and  _183
REMARK   79  A    between atoms: _183  and  _184
REMARK   80  A    between atoms: _183  and  _186
REMARK   81  A    between atoms: _186  and  _187
REMARK   82  A    between atoms: _190  and  _192
REMARK   83  A    between atoms: _192  and  _193
REMARK   84  A    between atoms: _192  and  _195
REMARK   85  A    between atoms: _195  and  _196
REMARK   86  A    between atoms: _199  and  _201
REMARK   87  A    between atoms: _201  and  _202
REMARK   88  A    between atoms: _201  and  _204
REMARK   89  A    between atoms: _204  and  _205
REMARK   90  A    between atoms: _209  and  _210
REMARK   91  A    between atoms: _215  and  _217
REMARK   92  A    between atoms: _217  and  _218
REMARK   93  A    between atoms: _217  and  _220
REMARK   94  A    between atoms: _223  and  _225
REMARK   95  A    between atoms: _225  and  _226
REMARK   96  A    between atoms: _225  and  _228
REMARK   97  A    between atoms: _228  and  _229
REMARK   98  A    between atoms: _234  and  _236
REMARK   99  A    between atoms: _236  and  _237
REMARK  100  A    between atoms: _236  and  _239
REMARK  101  A    between atoms: _239  and  _240
REMARK  102  A    between atoms: _243  and  _245
REMARK  103  A    between atoms: _245  and  _246
REMARK  104  A    between atoms: _245  and  _248
REMARK  105  A    between atoms: _248  and  _249
REMARK  106  A    between atoms: _252  and  _254
REMARK  107  A    between atoms: _254  and  _255
REMARK  108  A    between atoms: _257  and  _259
REMARK  109  A    between atoms: _259  and  _260
REMARK  110  A    between atoms: _259  and  _262
REMARK  111  A    between atoms: _262  and  _263
REMARK  112  A    between atoms: _263  and  _264
REMARK  113  A    between atoms: _264  and  _265
REMARK  114  A    between atoms: _274  and  _276
REMARK  115  A    between atoms: _276  and  _277
REMARK  116  A    between atoms: _276  and  _279
REMARK  117  A    between atoms: _279  and  _280
REMARK  118  A    between atoms: _283  and  _285
REMARK  119  A    between atoms: _285  and  _286
REMARK  120  A    between atoms: _285  and  _288
REMARK  121  A    between atoms: _288  and  _289
REMARK  122  A    between atoms: _289  and  _290
REMARK  123  A    between atoms: _290  and  _291
REMARK  124  A    between atoms: _300  and  _302
REMARK  125  A    between atoms: _302  and  _303
REMARK  126  A    between atoms: _302  and  _305
REMARK  127  A    between atoms: _305  and  _306
REMARK  128  A    between atoms: _309  and  _311
REMARK  129  A    between atoms: _311  and  _312
REMARK  130  A    between atoms: _311  and  _314
REMARK  131  A    between atoms: _314  and  _315
REMARK  132  A    between atoms: _318  and  _320
REMARK  133  A    between atoms: _320  and  _321
REMARK  134  A    between atoms: _320  and  _323
REMARK  135  A    between atoms: _323  and  _324
REMARK  136  A    between atoms: _327  and  _329
REMARK  137  A    between atoms: _329  and  _330
REMARK  138  A    between atoms: _329  and  _332
REMARK  139  A    between atoms: _332  and  _333
REMARK  140  A    between atoms: _336  and  _338
REMARK  141  A    between atoms: _338  and  _339
REMARK  142  A    between atoms: _341  and  _343
REMARK  143  A    between atoms: _343  and  _344
REMARK  144  A    between atoms: _347  and  _349
REMARK  145  A    between atoms: _349  and  _350
REMARK  146  A    between atoms: _349  and  _352
REMARK  147  A    between atoms: _352  and  _353
REMARK  148  A    between atoms: _356  and  _358
REMARK  149  A    between atoms: _358  and  _359
REMARK  150  A    between atoms: _358  and  _361
REMARK  151  A    between atoms: _361  and  _362
REMARK  152  A    between atoms: _365  and  _367
REMARK  153  A    between atoms: _367  and  _368
REMARK  154  A    between atoms: _367  and  _370
REMARK  155  A    between atoms: _370  and  _371
REMARK  156  A    between atoms: _374  and  _376
REMARK  157  A    between atoms: _376  and  _377
REMARK  158  A    between atoms: _376  and  _379
REMARK  159  A    between atoms: _382  and  _384
REMARK  160  A    between atoms: _384  and  _385
REMARK  161  A    between atoms: _384  and  _387
REMARK  162  A    between atoms: _387  and  _388
REMARK  163  A    between atoms: _388  and  _389
REMARK  164  A    between atoms: _389  and  _390
REMARK  165  A    between atoms: _390  and  _391
REMARK  166  A    between atoms: _395  and  _397
REMARK  167  A    between atoms: _397  and  _398
REMARK  168  A    between atoms: _397  and  _400
REMARK  169  A    between atoms: _400  and  _401
REMARK  170  A    between atoms: _401  and  _402
REMARK  171  A    between atoms: _404  and  _406
REMARK  172  A    between atoms: _406  and  _407
REMARK  173  A    between atoms: _406  and  _409
REMARK  174  A    between atoms: _409  and  _410
REMARK  175  A    between atoms: _413  and  _415
REMARK  176  A    between atoms: _415  and  _416
REMARK  177  A    between atoms: _418  and  _420
REMARK  178  A    between atoms: _420  and  _421
REMARK  179  A    between atoms: _423  and  _425
REMARK  180  A    between atoms: _425  and  _426
REMARK  181  A    between atoms: _425  and  _428
REMARK  182  A    between atoms: _428  and  _429
REMARK  183  A    between atoms: _432  and  _434
REMARK  184  A    between atoms: _434  and  _435
REMARK  185  A    between atoms: _437  and  _439
REMARK  186  A    between atoms: _439  and  _440
REMARK  187  A    between atoms: _442  and  _444
REMARK  188  A    between atoms: _444  and  _445
REMARK  189  A    between atoms: _444  and  _447
REMARK  190  A    between atoms: _447  and  _448
REMARK  191  A    between atoms: _454  and  _456
REMARK  192  A    between atoms: _456  and  _457
REMARK  193  A    between atoms: _456  and  _459
REMARK  194  A    between atoms: _459  and  _460
REMARK  195  A    between atoms: _463  and  _465
REMARK  196  A    between atoms: _465  and  _466
REMARK  197  A    between atoms: _465  and  _468
REMARK  198  A    between atoms: _471  and  _473
REMARK  199  A    between atoms: _473  and  _474
REMARK  200  A    between atoms: _473  and  _476
REMARK  201  A    between atoms: _476  and  _477
REMARK  202  A    between atoms: _481  and  _482
REMARK  203  A    between atoms: _487  and  _489
REMARK  204  A    between atoms: _489  and  _490
REMARK  205  A    between atoms: _489  and  _492
REMARK  206  A    between atoms: _492  and  _493
REMARK  207  A    between atoms: _497  and  _498
REMARK  208  A    between atoms: _503  and  _505
REMARK  209  A    between atoms: _505  and  _506
REMARK  210  A    between atoms: _505  and  _508
REMARK  211  A    between atoms: _511  and  _513
REMARK  212  A    between atoms: _513  and  _514
REMARK  213  A    between atoms: _513  and  _516
REMARK  214  A    between atoms: _516  and  _517
REMARK  215  A    between atoms: _522  and  _524
REMARK  216  A    between atoms: _524  and  _525
REMARK  217  A    between atoms: _524  and  _527
REMARK  218  A    between atoms: _527  and  _528
REMARK  219  A    between atoms: _531  and  _533
REMARK  220  A    between atoms: _533  and  _534
REMARK  221  A    between atoms: _533  and  _536
REMARK  222  A    between atoms: _536  and  _537
REMARK  223  A    between atoms: _540  and  _542
REMARK  224  A    between atoms: _542  and  _543
REMARK  225  A    between atoms: _545  and  _547
REMARK  226  A    between atoms: _547  and  _548
REMARK  227  A    between atoms: _547  and  _550
REMARK  228  A    between atoms: _550  and  _551
REMARK  229  A    between atoms: _551  and  _552
REMARK  230  A    between atoms: _552  and  _553
REMARK  231  A    between atoms: _562  and  _564
REMARK  232  A    between atoms: _564  and  _565
REMARK  233  A    between atoms: _564  and  _567
REMARK  234  A    between atoms: _567  and  _568
REMARK                            x       y       z     vdW  Elec       q    Type
REMARK                         _______ _______ _______ _____ _____    ______ ____
ROOT
ATOM      1  O   HOH     1       9.884  26.040   8.929  0.00  0.00    +0.000 OA
ENDROOT
TORSDOF 0
REMARK  Name = ../refined-set-2016/3vfb/3vfb_pocket.pdb
REMARK  234 active torsions:
REMARK  status: ('A' for Active; 'I' for Inactive)
REMARK    1  A    between atoms: _1  and  _3
REMARK    2  A    between atoms: _3  and  _4
REMARK    3  A    between atoms: _3  and  _6
REMARK    4  A    between atoms: _6  and  _7
REMARK    5  A    between atoms: _7  and  _8
REMARK    6  A    between atoms: _8  and  _9
REMARK    7  A    between atoms: _18  and  _20
REMARK    8  A    between atoms: _20  and  _21
REMARK    9  A    between atoms: _20  and  _23
REMARK   10  A    between atoms: _23  and  _24
REMARK   11  A    between atoms: _27  and  _29
REMARK   12  A    between atoms: _29  and  _30
REMARK   13  A    between atoms: _29  and  _32
REMARK   14  A    between atoms: _32  and  _33
REMARK   15  A    between atoms: _36  and  _38
REMARK   16  A    between atoms: _38  and  _39
REMARK   17  A    between atoms: _38  and  _41
REMARK   18  A    between atoms: _41  and  _42
REMARK   19  A    between atoms: _45  and  _47
REMARK   20  A    between atoms: _47  and  _48
REMARK   21  A    between atoms: _47  and  _50
REMARK   22  A    between atoms: _50  and  _51
REMARK   23  A    between atoms: _54  and  _56
REMARK   24  A    between atoms: _56  and  _57
REMARK   25  A    between atoms: _56  and  _59
REMARK   26  A    between atoms: _59  and  _60
REMARK   27  A    between atoms: _63  and  _65
REMARK   28  A    between atoms: _65  and  _66
REMARK   29  A    between atoms: _68  and  _70
REMARK   30  A    between atoms: _70  and  _71
REMARK   31  A    between atoms: _74  and  _76
REMARK   32  A    between atoms: _76  and  _77
REMARK   33  A    between atoms: _76  and  _79
REMARK   34  A    between atoms: _79  and  _80
REMARK   35  A    between atoms: _83  and  _85
REMARK   36  A    between atoms: _85  and  _86
REMARK   37  A    between atoms: _85  and  _88
REMARK   38  A    between atoms: _88  and  _89
REMARK   39  A    between atoms: _92  and  _94
REMARK   40  A    between atoms: _94  and  _95
REMARK   41  A    between atoms: _94  and  _97
REMARK   42  A    between atoms: _97  and  _98
REMARK   43  A    between atoms: _101  and  _103
REMARK   44  A    between atoms: _103  and  _104
REMARK   45  A    between atoms: _103  and  _106
REMARK   46  A    between atoms: _109  and  _111
REMARK   47  A    between atoms: _111  and  _112
REMARK   48  A    between atoms: _111  and  _114
REMARK   49  A    between atoms: _114  and  _115
REMARK   50  A    between atoms: _115  and  _116
REMARK   51  A    between atoms: _116  and  _117
REMARK   52  A    between atoms: _117  and  _118
REMARK   53  A    between atoms: _122  and  _124
REMARK   54  A    between atoms: _124  and  _125
REMARK   55  A    between atoms: _124  and  _127
REMARK   56  A    between atoms: _127  and  _128
REMARK   57  A    between atoms: _128  and  _129
REMARK   58  A    between atoms: _131  and  _133
REMARK   59  A    between atoms: _133  and  _134
REMARK   60  A    between atoms: _133  and  _136
REMARK   61  A    between atoms: _136  and  _137
REMARK   62  A    between atoms: _140  and  _142
REMARK   63  A    between atoms: _142  and  _143
REMARK   64  A    between atoms: _145  and  _147
REMARK   65  A    between atoms: _147  and  _148
REMARK   66  A    between atoms: _150  and  _152
REMARK   67  A    between atoms: _152  and  _153
REMARK   68  A    between atoms: _152  and  _155
REMARK   69  A    between atoms: _155  and  _156
REMARK   70  A    between atoms: _159  and  _161
REMARK   71  A    between atoms: _161  and  _162
REMARK   72  A    between atoms: _164  and  _166
REMARK   73  A    between atoms: _166  and  _167
REMARK   74  A    between atoms: _169  and  _171
REMARK   75  A    between atoms: _171  and  _172
REMARK   76  A    between atoms: _171  and  _174
REMARK   77  A    between atoms: _174  and  _175
REMARK   78  A    between atoms: _181  and  _183
REMARK   79  A    between atoms: _183  and  _184
REMARK   80  A    between atoms: _183  and  _186
REMARK   81  A    between atoms: _186  and  _187
REMARK   82  A    between atoms: _190  and  _192
REMARK   83  A    between atoms: _192  and  _193
REMARK   84  A    between atoms: _192  and  _195
REMARK   85  A    between atoms: _195  and  _196
REMARK   86  A    between atoms: _199  and  _201
REMARK   87  A    between atoms: _201  and  _202
REMARK   88  A    between atoms: _201  and  _204
REMARK   89  A    between atoms: _204  and  _205
REMARK   90  A    between atoms: _209  and  _210
REMARK   91  A    between atoms: _215  and  _217
REMARK   92  A    between atoms: _217  and  _218
REMARK   93  A    between atoms: _217  and  _220
REMARK   94  A    between atoms: _223  and  _225
REMARK   95  A    between atoms: _225  and  _226
REMARK   96  A    between atoms: _225  and  _228
REMARK   97  A    between atoms: _228  and  _229
REMARK   98  A    between atoms: _234  and  _236
REMARK   99  A    between atoms: _236  and  _237
REMARK  100  A    between atoms: _236  and  _239
REMARK  101  A    between atoms: _239  and  _240
REMARK  102  A    between atoms: _243  and  _245
REMARK  103  A    between atoms: _245  and  _246
REMARK  104  A    between atoms: _245  and  _248
REMARK  105  A    between atoms: _248  and  _249
REMARK  106  A    between atoms: _252  and  _254
REMARK  107  A    between atoms: _254  and  _255
REMARK  108  A    between atoms: _257  and  _259
REMARK  109  A    between atoms: _259  and  _260
REMARK  110  A    between atoms: _259  and  _262
REMARK  111  A    between atoms: _262  and  _263
REMARK  112  A    between atoms: _263  and  _264
REMARK  113  A    between atoms: _264  and  _265
REMARK  114  A    between atoms: _274  and  _276
REMARK  115  A    between atoms: _276  and  _277
REMARK  116  A    between atoms: _276  and  _279
REMARK  117  A    between atoms: _279  and  _280
REMARK  118  A    between atoms: _283  and  _285
REMARK  119  A    between atoms: _285  and  _286
REMARK  120  A    between atoms: _285  and  _288
REMARK  121  A    between atoms: _288  and  _289
REMARK  122  A    between atoms: _289  and  _290
REMARK  123  A    between atoms: _290  and  _291
REMARK  124  A    between atoms: _300  and  _302
REMARK  125  A    between atoms: _302  and  _303
REMARK  126  A    between atoms: _302  and  _305
REMARK  127  A    between atoms: _305  and  _306
REMARK  128  A    between atoms: _309  and  _311
REMARK  129  A    between atoms: _311  and  _312
REMARK  130  A    between atoms: _311  and  _314
REMARK  131  A    between atoms: _314  and  _315
REMARK  132  A    between atoms: _318  and  _320
REMARK  133  A    between atoms: _320  and  _321
REMARK  134  A    between atoms: _320  and  _323
REMARK  135  A    between atoms: _323  and  _324
REMARK  136  A    between atoms: _327  and  _329
REMARK  137  A    between atoms: _329  and  _330
REMARK  138  A    between atoms: _329  and  _332
REMARK  139  A    between atoms: _332  and  _333
REMARK  140  A    between atoms: _336  and  _338
REMARK  141  A    between atoms: _338  and  _339
REMARK  142  A    between atoms: _341  and  _343
REMARK  143  A    between atoms: _343  and  _344
REMARK  144  A    between atoms: _347  and  _349
REMARK  145  A    between atoms: _349  and  _350
REMARK  146  A    between atoms: _349  and  _352
REMARK  147  A    between atoms: _352  and  _353
REMARK  148  A    between atoms: _356  and  _358
REMARK  149  A    between atoms: _358  and  _359
REMARK  150  A    between atoms: _358  and  _361
REMARK  151  A    between atoms: _361  and  _362
REMARK  152  A    between atoms: _365  and  _367
REMARK  153  A    between atoms: _367  and  _368
REMARK  154  A    between atoms: _367  and  _370
REMARK  155  A    between atoms: _370  and  _371
REMARK  156  A    between atoms: _374  and  _376
REMARK  157  A    between atoms: _376  and  _377
REMARK  158  A    between atoms: _376  and  _379
REMARK  159  A    between atoms: _382  and  _384
REMARK  160  A    between atoms: _384  and  _385
REMARK  161  A    between atoms: _384  and  _387
REMARK  162  A    between atoms: _387  and  _388
REMARK  163  A    between atoms: _388  and  _389
REMARK  164  A    between atoms: _389  and  _390
REMARK  165  A    between atoms: _390  and  _391
REMARK  166  A    between atoms: _395  and  _397
REMARK  167  A    between atoms: _397  and  _398
REMARK  168  A    between atoms: _397  and  _400
REMARK  169  A    between atoms: _400  and  _401
REMARK  170  A    between atoms: _401  and  _402
REMARK  171  A    between atoms: _404  and  _406
REMARK  172  A    between atoms: _406  and  _407
REMARK  173  A    between atoms: _406  and  _409
REMARK  174  A    between atoms: _409  and  _410
REMARK  175  A    between atoms: _413  and  _415
REMARK  176  A    between atoms: _415  and  _416
REMARK  177  A    between atoms: _418  and  _420
REMARK  178  A    between atoms: _420  and  _421
REMARK  179  A    between atoms: _423  and  _425
REMARK  180  A    between atoms: _425  and  _426
REMARK  181  A    between atoms: _425  and  _428
REMARK  182  A    between atoms: _428  and  _429
REMARK  183  A    between atoms: _432  and  _434
REMARK  184  A    between atoms: _434  and  _435
REMARK  185  A    between atoms: _437  and  _439
REMARK  186  A    between atoms: _439  and  _440
REMARK  187  A    between atoms: _442  and  _444
REMARK  188  A    between atoms: _444  and  _445
REMARK  189  A    between atoms: _444  and  _447
REMARK  190  A    between atoms: _447  and  _448
REMARK  191  A    between atoms: _454  and  _456
REMARK  192  A    between atoms: _456  and  _457
REMARK  193  A    between atoms: _456  and  _459
REMARK  194  A    between atoms: _459  and  _460
REMARK  195  A    between atoms: _463  and  _465
REMARK  196  A    between atoms: _465  and  _466
REMARK  197  A    between atoms: _465  and  _468
REMARK  198  A    between atoms: _471  and  _473
REMARK  199  A    between atoms: _473  and  _474
REMARK  200  A    between atoms: _473  and  _476
REMARK  201  A    between atoms: _476  and  _477
REMARK  202  A    between atoms: _481  and  _482
REMARK  203  A    between atoms: _487  and  _489
REMARK  204  A    between atoms: _489  and  _490
REMARK  205  A    between atoms: _489  and  _492
REMARK  206  A    between atoms: _492  and  _493
REMARK  207  A    between atoms: _497  and  _498
REMARK  208  A    between atoms: _503  and  _505
REMARK  209  A    between atoms: _505  and  _506
REMARK  210  A    between atoms: _505  and  _508
REMARK  211  A    between atoms: _511  and  _513
REMARK  212  A    between atoms: _513  and  _514
REMARK  213  A    between atoms: _513  and  _516
REMARK  214  A    between atoms: _516  and  _517
REMARK  215  A    between atoms: _522  and  _524
REMARK  216  A    between atoms: _524  and  _525
REMARK  217  A    between atoms: _524  and  _527
REMARK  218  A    between atoms: _527  and  _528
REMARK  219  A    between atoms: _531  and  _533
REMARK  220  A    between atoms: _533  and  _534
REMARK  221  A    between atoms: _533  and  _536
REMARK  222  A    between atoms: _536  and  _537
REMARK  223  A    between atoms: _540  and  _542
REMARK  224  A    between atoms: _542  and  _543
REMARK  225  A    between atoms: _545  and  _547
REMARK  226  A    between atoms: _547  and  _548
REMARK  227  A    between atoms: _547  and  _550
REMARK  228  A    between atoms: _550  and  _551
REMARK  229  A    between atoms: _551  and  _552
REMARK  230  A    between atoms: _552  and  _553
REMARK  231  A    between atoms: _562  and  _564
REMARK  232  A    between atoms: _564  and  _565
REMARK  233  A    between atoms: _564  and  _567
REMARK  234  A    between atoms: _567  and  _568
REMARK                            x       y       z     vdW  Elec       q    Type
REMARK                         _______ _______ _______ _____ _____    ______ ____
ROOT
ATOM      1  O   HOH     1      21.375  28.684  25.110  0.00  0.00    +0.000 OA
ENDROOT
TORSDOF 0
REMARK  Name = ../refined-set-2016/3vfb/3vfb_pocket.pdb
REMARK  234 active torsions:
REMARK  status: ('A' for Active; 'I' for Inactive)
REMARK    1  A    between atoms: _1  and  _3
REMARK    2  A    between atoms: _3  and  _4
REMARK    3  A    between atoms: _3  and  _6
REMARK    4  A    between atoms: _6  and  _7
REMARK    5  A    between atoms: _7  and  _8
REMARK    6  A    between atoms: _8  and  _9
REMARK    7  A    between atoms: _18  and  _20
REMARK    8  A    between atoms: _20  and  _21
REMARK    9  A    between atoms: _20  and  _23
REMARK   10  A    between atoms: _23  and  _24
REMARK   11  A    between atoms: _27  and  _29
REMARK   12  A    between atoms: _29  and  _30
REMARK   13  A    between atoms: _29  and  _32
REMARK   14  A    between atoms: _32  and  _33
REMARK   15  A    between atoms: _36  and  _38
REMARK   16  A    between atoms: _38  and  _39
REMARK   17  A    between atoms: _38  and  _41
REMARK   18  A    between atoms: _41  and  _42
REMARK   19  A    between atoms: _45  and  _47
REMARK   20  A    between atoms: _47  and  _48
REMARK   21  A    between atoms: _47  and  _50
REMARK   22  A    between atoms: _50  and  _51
REMARK   23  A    between atoms: _54  and  _56
REMARK   24  A    between atoms: _56  and  _57
REMARK   25  A    between atoms: _56  and  _59
REMARK   26  A    between atoms: _59  and  _60
REMARK   27  A    between atoms: _63  and  _65
REMARK   28  A    between atoms: _65  and  _66
REMARK   29  A    between atoms: _68  and  _70
REMARK   30  A    between atoms: _70  and  _71
REMARK   31  A    between atoms: _74  and  _76
REMARK   32  A    between atoms: _76  and  _77
REMARK   33  A    between atoms: _76  and  _79
REMARK   34  A    between atoms: _79  and  _80
REMARK   35  A    between atoms: _83  and  _85
REMARK   36  A    between atoms: _85  and  _86
REMARK   37  A    between atoms: _85  and  _88
REMARK   38  A    between atoms: _88  and  _89
REMARK   39  A    between atoms: _92  and  _94
REMARK   40  A    between atoms: _94  and  _95
REMARK   41  A    between atoms: _94  and  _97
REMARK   42  A    between atoms: _97  and  _98
REMARK   43  A    between atoms: _101  and  _103
REMARK   44  A    between atoms: _103  and  _104
REMARK   45  A    between atoms: _103  and  _106
REMARK   46  A    between atoms: _109  and  _111
REMARK   47  A    between atoms: _111  and  _112
REMARK   48  A    between atoms: _111  and  _114
REMARK   49  A    between atoms: _114  and  _115
REMARK   50  A    between atoms: _115  and  _116
REMARK   51  A    between atoms: _116  and  _117
REMARK   52  A    between atoms: _117  and  _118
REMARK   53  A    between atoms: _122  and  _124
REMARK   54  A    between atoms: _124  and  _125
REMARK   55  A    between atoms: _124  and  _127
REMARK   56  A    between atoms: _127  and  _128
REMARK   57  A    between atoms: _128  and  _129
REMARK   58  A    between atoms: _131  and  _133
REMARK   59  A    between atoms: _133  and  _134
REMARK   60  A    between atoms: _133  and  _136
REMARK   61  A    between atoms: _136  and  _137
REMARK   62  A    between atoms: _140  and  _142
REMARK   63  A    between atoms: _142  and  _143
REMARK   64  A    between atoms: _145  and  _147
REMARK   65  A    between atoms: _147  and  _148
REMARK   66  A    between atoms: _150  and  _152
REMARK   67  A    between atoms: _152  and  _153
REMARK   68  A    between atoms: _152  and  _155
REMARK   69  A    between atoms: _155  and  _156
REMARK   70  A    between atoms: _159  and  _161
REMARK   71  A    between atoms: _161  and  _162
REMARK   72  A    between atoms: _164  and  _166
REMARK   73  A    between atoms: _166  and  _167
REMARK   74  A    between atoms: _169  and  _171
REMARK   75  A    between atoms: _171  and  _172
REMARK   76  A    between atoms: _171  and  _174
REMARK   77  A    between atoms: _174  and  _175
REMARK   78  A    between atoms: _181  and  _183
REMARK   79  A    between atoms: _183  and  _184
REMARK   80  A    between atoms: _183  and  _186
REMARK   81  A    between atoms: _186  and  _187
REMARK   82  A    between atoms: _190  and  _192
REMARK   83  A    between atoms: _192  and  _193
REMARK   84  A    between atoms: _192  and  _195
REMARK   85  A    between atoms: _195  and  _196
REMARK   86  A    between atoms: _199  and  _201
REMARK   87  A    between atoms: _201  and  _202
REMARK   88  A    between atoms: _201  and  _204
REMARK   89  A    between atoms: _204  and  _205
REMARK   90  A    between atoms: _209  and  _210
REMARK   91  A    between atoms: _215  and  _217
REMARK   92  A    between atoms: _217  and  _218
REMARK   93  A    between atoms: _217  and  _220
REMARK   94  A    between atoms: _223  and  _225
REMARK   95  A    between atoms: _225  and  _226
REMARK   96  A    between atoms: _225  and  _228
REMARK   97  A    between atoms: _228  and  _229
REMARK   98  A    between atoms: _234  and  _236
REMARK   99  A    between atoms: _236  and  _237
REMARK  100  A    between atoms: _236  and  _239
REMARK  101  A    between atoms: _239  and  _240
REMARK  102  A    between atoms: _243  and  _245
REMARK  103  A    between atoms: _245  and  _246
REMARK  104  A    between atoms: _245  and  _248
REMARK  105  A    between atoms: _248  and  _249
REMARK  106  A    between atoms: _252  and  _254
REMARK  107  A    between atoms: _254  and  _255
REMARK  108  A    between atoms: _257  and  _259
REMARK  109  A    between atoms: _259  and  _260
REMARK  110  A    between atoms: _259  and  _262
REMARK  111  A    between atoms: _262  and  _263
REMARK  112  A    between atoms: _263  and  _264
REMARK  113  A    between atoms: _264  and  _265
REMARK  114  A    between atoms: _274  and  _276
REMARK  115  A    between atoms: _276  and  _277
REMARK  116  A    between atoms: _276  and  _279
REMARK  117  A    between atoms: _279  and  _280
REMARK  118  A    between atoms: _283  and  _285
REMARK  119  A    between atoms: _285  and  _286
REMARK  120  A    between atoms: _285  and  _288
REMARK  121  A    between atoms: _288  and  _289
REMARK  122  A    between atoms: _289  and  _290
REMARK  123  A    between atoms: _290  and  _291
REMARK  124  A    between atoms: _300  and  _302
REMARK  125  A    between atoms: _302  and  _303
REMARK  126  A    between atoms: _302  and  _305
REMARK  127  A    between atoms: _305  and  _306
REMARK  128  A    between atoms: _309  and  _311
REMARK  129  A    between atoms: _311  and  _312
REMARK  130  A    between atoms: _311  and  _314
REMARK  131  A    between atoms: _314  and  _315
REMARK  132  A    between atoms: _318  and  _320
REMARK  133  A    between atoms: _320  and  _321
REMARK  134  A    between atoms: _320  and  _323
REMARK  135  A    between atoms: _323  and  _324
REMARK  136  A    between atoms: _327  and  _329
REMARK  137  A    between atoms: _329  and  _330
REMARK  138  A    between atoms: _329  and  _332
REMARK  139  A    between atoms: _332  and  _333
REMARK  140  A    between atoms: _336  and  _338
REMARK  141  A    between atoms: _338  and  _339
REMARK  142  A    between atoms: _341  and  _343
REMARK  143  A    between atoms: _343  and  _344
REMARK  144  A    between atoms: _347  and  _349
REMARK  145  A    between atoms: _349  and  _350
REMARK  146  A    between atoms: _349  and  _352
REMARK  147  A    between atoms: _352  and  _353
REMARK  148  A    between atoms: _356  and  _358
REMARK  149  A    between atoms: _358  and  _359
REMARK  150  A    between atoms: _358  and  _361
REMARK  151  A    between atoms: _361  and  _362
REMARK  152  A    between atoms: _365  and  _367
REMARK  153  A    between atoms: _367  and  _368
REMARK  154  A    between atoms: _367  and  _370
REMARK  155  A    between atoms: _370  and  _371
REMARK  156  A    between atoms: _374  and  _376
REMARK  157  A    between atoms: _376  and  _377
REMARK  158  A    between atoms: _376  and  _379
REMARK  159  A    between atoms: _382  and  _384
REMARK  160  A    between atoms: _384  and  _385
REMARK  161  A    between atoms: _384  and  _387
REMARK  162  A    between atoms: _387  and  _388
REMARK  163  A    between atoms: _388  and  _389
REMARK  164  A    between atoms: _389  and  _390
REMARK  165  A    between atoms: _390  and  _391
REMARK  166  A    between atoms: _395  and  _397
REMARK  167  A    between atoms: _397  and  _398
REMARK  168  A    between atoms: _397  and  _400
REMARK  169  A    between atoms: _400  and  _401
REMARK  170  A    between atoms: _401  and  _402
REMARK  171  A    between atoms: _404  and  _406
REMARK  172  A    between atoms: _406  and  _407
REMARK  173  A    between atoms: _406  and  _409
REMARK  174  A    between atoms: _409  and  _410
REMARK  175  A    between atoms: _413  and  _415
REMARK  176  A    between atoms: _415  and  _416
REMARK  177  A    between atoms: _418  and  _420
REMARK  178  A    between atoms: _420  and  _421
REMARK  179  A    between atoms: _423  and  _425
REMARK  180  A    between atoms: _425  and  _426
REMARK  181  A    between atoms: _425  and  _428
REMARK  182  A    between atoms: _428  and  _429
REMARK  183  A    between atoms: _432  and  _434
REMARK  184  A    between atoms: _434  and  _435
REMARK  185  A    between atoms: _437  and  _439
REMARK  186  A    between atoms: _439  and  _440
REMARK  187  A    between atoms: _442  and  _444
REMARK  188  A    between atoms: _444  and  _445
REMARK  189  A    between atoms: _444  and  _447
REMARK  190  A    between atoms: _447  and  _448
REMARK  191  A    between atoms: _454  and  _456
REMARK  192  A    between atoms: _456  and  _457
REMARK  193  A    between atoms: _456  and  _459
REMARK  194  A    between atoms: _459  and  _460
REMARK  195  A    between atoms: _463  and  _465
REMARK  196  A    between atoms: _465  and  _466
REMARK  197  A    between atoms: _465  and  _468
REMARK  198  A    between atoms: _471  and  _473
REMARK  199  A    between atoms: _473  and  _474
REMARK  200  A    between atoms: _473  and  _476
REMARK  201  A    between atoms: _476  and  _477
REMARK  202  A    between atoms: _481  and  _482
REMARK  203  A    between atoms: _487  and  _489
REMARK  204  A    between atoms: _489  and  _490
REMARK  205  A    between atoms: _489  and  _492
REMARK  206  A    between atoms: _492  and  _493
REMARK  207  A    between atoms: _497  and  _498
REMARK  208  A    between atoms: _503  and  _505
REMARK  209  A    between atoms: _505  and  _506
REMARK  210  A    between atoms: _505  and  _508
REMARK  211  A    between atoms: _511  and  _513
REMARK  212  A    between atoms: _513  and  _514
REMARK  213  A    between atoms: _513  and  _516
REMARK  214  A    between atoms: _516  and  _517
REMARK  215  A    between atoms: _522  and  _524
REMARK  216  A    between atoms: _524  and  _525
REMARK  217  A    between atoms: _524  and  _527
REMARK  218  A    between atoms: _527  and  _528
REMARK  219  A    between atoms: _531  and  _533
REMARK  220  A    between atoms: _533  and  _534
REMARK  221  A    between atoms: _533  and  _536
REMARK  222  A    between atoms: _536  and  _537
REMARK  223  A    between atoms: _540  and  _542
REMARK  224  A    between atoms: _542  and  _543
REMARK  225  A    between atoms: _545  and  _547
REMARK  226  A    between atoms: _547  and  _548
REMARK  227  A    between atoms: _547  and  _550
REMARK  228  A    between atoms: _550  and  _551
REMARK  229  A    between atoms: _551  and  _552
REMARK  230  A    between atoms: _552  and  _553
REMARK  231  A    between atoms: _562  and  _564
REMARK  232  A    between atoms: _564  and  _565
REMARK  233  A    between atoms: _564  and  _567
REMARK  234  A    between atoms: _567  and  _568
REMARK                            x       y       z     vdW  Elec       q    Type
REMARK                         _______ _______ _______ _____ _____    ______ ____
ROOT
ATOM      1  O   HOH     1       7.327  15.989  22.681  0.00  0.00    +0.000 OA
ENDROOT
TORSDOF 0
REMARK  Name = ../refined-set-2016/3vfb/3vfb_pocket.pdb
REMARK  234 active torsions:
REMARK  status: ('A' for Active; 'I' for Inactive)
REMARK    1  A    between atoms: _1  and  _3
REMARK    2  A    between atoms: _3  and  _4
REMARK    3  A    between atoms: _3  and  _6
REMARK    4  A    between atoms: _6  and  _7
REMARK    5  A    between atoms: _7  and  _8
REMARK    6  A    between atoms: _8  and  _9
REMARK    7  A    between atoms: _18  and  _20
REMARK    8  A    between atoms: _20  and  _21
REMARK    9  A    between atoms: _20  and  _23
REMARK   10  A    between atoms: _23  and  _24
REMARK   11  A    between atoms: _27  and  _29
REMARK   12  A    between atoms: _29  and  _30
REMARK   13  A    between atoms: _29  and  _32
REMARK   14  A    between atoms: _32  and  _33
REMARK   15  A    between atoms: _36  and  _38
REMARK   16  A    between atoms: _38  and  _39
REMARK   17  A    between atoms: _38  and  _41
REMARK   18  A    between atoms: _41  and  _42
REMARK   19  A    between atoms: _45  and  _47
REMARK   20  A    between atoms: _47  and  _48
REMARK   21  A    between atoms: _47  and  _50
REMARK   22  A    between atoms: _50  and  _51
REMARK   23  A    between atoms: _54  and  _56
REMARK   24  A    between atoms: _56  and  _57
REMARK   25  A    between atoms: _56  and  _59
REMARK   26  A    between atoms: _59  and  _60
REMARK   27  A    between atoms: _63  and  _65
REMARK   28  A    between atoms: _65  and  _66
REMARK   29  A    between atoms: _68  and  _70
REMARK   30  A    between atoms: _70  and  _71
REMARK   31  A    between atoms: _74  and  _76
REMARK   32  A    between atoms: _76  and  _77
REMARK   33  A    between atoms: _76  and  _79
REMARK   34  A    between atoms: _79  and  _80
REMARK   35  A    between atoms: _83  and  _85
REMARK   36  A    between atoms: _85  and  _86
REMARK   37  A    between atoms: _85  and  _88
REMARK   38  A    between atoms: _88  and  _89
REMARK   39  A    between atoms: _92  and  _94
REMARK   40  A    between atoms: _94  and  _95
REMARK   41  A    between atoms: _94  and  _97
REMARK   42  A    between atoms: _97  and  _98
REMARK   43  A    between atoms: _101  and  _103
REMARK   44  A    between atoms: _103  and  _104
REMARK   45  A    between atoms: _103  and  _106
REMARK   46  A    between atoms: _109  and  _111
REMARK   47  A    between atoms: _111  and  _112
REMARK   48  A    between atoms: _111  and  _114
REMARK   49  A    between atoms: _114  and  _115
REMARK   50  A    between atoms: _115  and  _116
REMARK   51  A    between atoms: _116  and  _117
REMARK   52  A    between atoms: _117  and  _118
REMARK   53  A    between atoms: _122  and  _124
REMARK   54  A    between atoms: _124  and  _125
REMARK   55  A    between atoms: _124  and  _127
REMARK   56  A    between atoms: _127  and  _128
REMARK   57  A    between atoms: _128  and  _129
REMARK   58  A    between atoms: _131  and  _133
REMARK   59  A    between atoms: _133  and  _134
REMARK   60  A    between atoms: _133  and  _136
REMARK   61  A    between atoms: _136  and  _137
REMARK   62  A    between atoms: _140  and  _142
REMARK   63  A    between atoms: _142  and  _143
REMARK   64  A    between atoms: _145  and  _147
REMARK   65  A    between atoms: _147  and  _148
REMARK   66  A    between atoms: _150  and  _152
REMARK   67  A    between atoms: _152  and  _153
REMARK   68  A    between atoms: _152  and  _155
REMARK   69  A    between atoms: _155  and  _156
REMARK   70  A    between atoms: _159  and  _161
REMARK   71  A    between atoms: _161  and  _162
REMARK   72  A    between atoms: _164  and  _166
REMARK   73  A    between atoms: _166  and  _167
REMARK   74  A    between atoms: _169  and  _171
REMARK   75  A    between atoms: _171  and  _172
REMARK   76  A    between atoms: _171  and  _174
REMARK   77  A    between atoms: _174  and  _175
REMARK   78  A    between atoms: _181  and  _183
REMARK   79  A    between atoms: _183  and  _184
REMARK   80  A    between atoms: _183  and  _186
REMARK   81  A    between atoms: _186  and  _187
REMARK   82  A    between atoms: _190  and  _192
REMARK   83  A    between atoms: _192  and  _193
REMARK   84  A    between atoms: _192  and  _195
REMARK   85  A    between atoms: _195  and  _196
REMARK   86  A    between atoms: _199  and  _201
REMARK   87  A    between atoms: _201  and  _202
REMARK   88  A    between atoms: _201  and  _204
REMARK   89  A    between atoms: _204  and  _205
REMARK   90  A    between atoms: _209  and  _210
REMARK   91  A    between atoms: _215  and  _217
REMARK   92  A    between atoms: _217  and  _218
REMARK   93  A    between atoms: _217  and  _220
REMARK   94  A    between atoms: _223  and  _225
REMARK   95  A    between atoms: _225  and  _226
REMARK   96  A    between atoms: _225  and  _228
REMARK   97  A    between atoms: _228  and  _229
REMARK   98  A    between atoms: _234  and  _236
REMARK   99  A    between atoms: _236  and  _237
REMARK  100  A    between atoms: _236  and  _239
REMARK  101  A    between atoms: _239  and  _240
REMARK  102  A    between atoms: _243  and  _245
REMARK  103  A    between atoms: _245  and  _246
REMARK  104  A    between atoms: _245  and  _248
REMARK  105  A    between atoms: _248  and  _249
REMARK  106  A    between atoms: _252  and  _254
REMARK  107  A    between atoms: _254  and  _255
REMARK  108  A    between atoms: _257  and  _259
REMARK  109  A    between atoms: _259  and  _260
REMARK  110  A    between atoms: _259  and  _262
REMARK  111  A    between atoms: _262  and  _263
REMARK  112  A    between atoms: _263  and  _264
REMARK  113  A    between atoms: _264  and  _265
REMARK  114  A    between atoms: _274  and  _276
REMARK  115  A    between atoms: _276  and  _277
REMARK  116  A    between atoms: _276  and  _279
REMARK  117  A    between atoms: _279  and  _280
REMARK  118  A    between atoms: _283  and  _285
REMARK  119  A    between atoms: _285  and  _286
REMARK  120  A    between atoms: _285  and  _288
REMARK  121  A    between atoms: _288  and  _289
REMARK  122  A    between atoms: _289  and  _290
REMARK  123  A    between atoms: _290  and  _291
REMARK  124  A    between atoms: _300  and  _302
REMARK  125  A    between atoms: _302  and  _303
REMARK  126  A    between atoms: _302  and  _305
REMARK  127  A    between atoms: _305  and  _306
REMARK  128  A    between atoms: _309  and  _311
REMARK  129  A    between atoms: _311  and  _312
REMARK  130  A    between atoms: _311  and  _314
REMARK  131  A    between atoms: _314  and  _315
REMARK  132  A    between atoms: _318  and  _320
REMARK  133  A    between atoms: _320  and  _321
REMARK  134  A    between atoms: _320  and  _323
REMARK  135  A    between atoms: _323  and  _324
REMARK  136  A    between atoms: _327  and  _329
REMARK  137  A    between atoms: _329  and  _330
REMARK  138  A    between atoms: _329  and  _332
REMARK  139  A    between atoms: _332  and  _333
REMARK  140  A    between atoms: _336  and  _338
REMARK  141  A    between atoms: _338  and  _339
REMARK  142  A    between atoms: _341  and  _343
REMARK  143  A    between atoms: _343  and  _344
REMARK  144  A    between atoms: _347  and  _349
REMARK  145  A    between atoms: _349  and  _350
REMARK  146  A    between atoms: _349  and  _352
REMARK  147  A    between atoms: _352  and  _353
REMARK  148  A    between atoms: _356  and  _358
REMARK  149  A    between atoms: _358  and  _359
REMARK  150  A    between atoms: _358  and  _361
REMARK  151  A    between atoms: _361  and  _362
REMARK  152  A    between atoms: _365  and  _367
REMARK  153  A    between atoms: _367  and  _368
REMARK  154  A    between atoms: _367  and  _370
REMARK  155  A    between atoms: _370  and  _371
REMARK  156  A    between atoms: _374  and  _376
REMARK  157  A    between atoms: _376  and  _377
REMARK  158  A    between atoms: _376  and  _379
REMARK  159  A    between atoms: _382  and  _384
REMARK  160  A    between atoms: _384  and  _385
REMARK  161  A    between atoms: _384  and  _387
REMARK  162  A    between atoms: _387  and  _388
REMARK  163  A    between atoms: _388  and  _389
REMARK  164  A    between atoms: _389  and  _390
REMARK  165  A    between atoms: _390  and  _391
REMARK  166  A    between atoms: _395  and  _397
REMARK  167  A    between atoms: _397  and  _398
REMARK  168  A    between atoms: _397  and  _400
REMARK  169  A    between atoms: _400  and  _401
REMARK  170  A    between atoms: _401  and  _402
REMARK  171  A    between atoms: _404  and  _406
REMARK  172  A    between atoms: _406  and  _407
REMARK  173  A    between atoms: _406  and  _409
REMARK  174  A    between atoms: _409  and  _410
REMARK  175  A    between atoms: _413  and  _415
REMARK  176  A    between atoms: _415  and  _416
REMARK  177  A    between atoms: _418  and  _420
REMARK  178  A    between atoms: _420  and  _421
REMARK  179  A    between atoms: _423  and  _425
REMARK  180  A    between atoms: _425  and  _426
REMARK  181  A    between atoms: _425  and  _428
REMARK  182  A    between atoms: _428  and  _429
REMARK  183  A    between atoms: _432  and  _434
REMARK  184  A    between atoms: _434  and  _435
REMARK  185  A    between atoms: _437  and  _439
REMARK  186  A    between atoms: _439  and  _440
REMARK  187  A    between atoms: _442  and  _444
REMARK  188  A    between atoms: _444  and  _445
REMARK  189  A    between atoms: _444  and  _447
REMARK  190  A    between atoms: _447  and  _448
REMARK  191  A    between atoms: _454  and  _456
REMARK  192  A    between atoms: _456  and  _457
REMARK  193  A    between atoms: _456  and  _459
REMARK  194  A    between atoms: _459  and  _460
REMARK  195  A    between atoms: _463  and  _465
REMARK  196  A    between atoms: _465  and  _466
REMARK  197  A    between atoms: _465  and  _468
REMARK  198  A    between atoms: _471  and  _473
REMARK  199  A    between atoms: _473  and  _474
REMARK  200  A    between atoms: _473  and  _476
REMARK  201  A    between atoms: _476  and  _477
REMARK  202  A    between atoms: _481  and  _482
REMARK  203  A    between atoms: _487  and  _489
REMARK  204  A    between atoms: _489  and  _490
REMARK  205  A    between atoms: _489  and  _492
REMARK  206  A    between atoms: _492  and  _493
REMARK  207  A    between atoms: _497  and  _498
REMARK  208  A    between atoms: _503  and  _505
REMARK  209  A    between atoms: _505  and  _506
REMARK  210  A    between atoms: _505  and  _508
REMARK  211  A    between atoms: _511  and  _513
REMARK  212  A    between atoms: _513  and  _514
REMARK  213  A    between atoms: _513  and  _516
REMARK  214  A    between atoms: _516  and  _517
REMARK  215  A    between atoms: _522  and  _524
REMARK  216  A    between atoms: _524  and  _525
REMARK  217  A    between atoms: _524  and  _527
REMARK  218  A    between atoms: _527  and  _528
REMARK  219  A    between atoms: _531  and  _533
REMARK  220  A    between atoms: _533  and  _534
REMARK  221  A    between atoms: _533  and  _536
REMARK  222  A    between atoms: _536  and  _537
REMARK  223  A    between atoms: _540  and  _542
REMARK  224  A    between atoms: _542  and  _543
REMARK  225  A    between atoms: _545  and  _547
REMARK  226  A    between atoms: _547  and  _548
REMARK  227  A    between atoms: _547  and  _550
REMARK  228  A    between atoms: _550  and  _551
REMARK  229  A    between atoms: _551  and  _552
REMARK  230  A    between atoms: _552  and  _553
REMARK  231  A    between atoms: _562  and  _564
REMARK  232  A    between atoms: _564  and  _565
REMARK  233  A    between atoms: _564  and  _567
REMARK  234  A    between atoms: _567  and  _568
REMARK                            x       y       z     vdW  Elec       q    Type
REMARK                         _______ _______ _______ _____ _____    ______ ____
ROOT
ATOM      1  O   HOH     1       6.305  16.893  28.221  0.00  0.00    +0.000 OA
ENDROOT
TORSDOF 0
REMARK  Name = ../refined-set-2016/3vfb/3vfb_pocket.pdb
REMARK  234 active torsions:
REMARK  status: ('A' for Active; 'I' for Inactive)
REMARK    1  A    between atoms: _1  and  _3
REMARK    2  A    between atoms: _3  and  _4
REMARK    3  A    between atoms: _3  and  _6
REMARK    4  A    between atoms: _6  and  _7
REMARK    5  A    between atoms: _7  and  _8
REMARK    6  A    between atoms: _8  and  _9
REMARK    7  A    between atoms: _18  and  _20
REMARK    8  A    between atoms: _20  and  _21
REMARK    9  A    between atoms: _20  and  _23
REMARK   10  A    between atoms: _23  and  _24
REMARK   11  A    between atoms: _27  and  _29
REMARK   12  A    between atoms: _29  and  _30
REMARK   13  A    between atoms: _29  and  _32
REMARK   14  A    between atoms: _32  and  _33
REMARK   15  A    between atoms: _36  and  _38
REMARK   16  A    between atoms: _38  and  _39
REMARK   17  A    between atoms: _38  and  _41
REMARK   18  A    between atoms: _41  and  _42
REMARK   19  A    between atoms: _45  and  _47
REMARK   20  A    between atoms: _47  and  _48
REMARK   21  A    between atoms: _47  and  _50
REMARK   22  A    between atoms: _50  and  _51
REMARK   23  A    between atoms: _54  and  _56
REMARK   24  A    between atoms: _56  and  _57
REMARK   25  A    between atoms: _56  and  _59
REMARK   26  A    between atoms: _59  and  _60
REMARK   27  A    between atoms: _63  and  _65
REMARK   28  A    between atoms: _65  and  _66
REMARK   29  A    between atoms: _68  and  _70
REMARK   30  A    between atoms: _70  and  _71
REMARK   31  A    between atoms: _74  and  _76
REMARK   32  A    between atoms: _76  and  _77
REMARK   33  A    between atoms: _76  and  _79
REMARK   34  A    between atoms: _79  and  _80
REMARK   35  A    between atoms: _83  and  _85
REMARK   36  A    between atoms: _85  and  _86
REMARK   37  A    between atoms: _85  and  _88
REMARK   38  A    between atoms: _88  and  _89
REMARK   39  A    between atoms: _92  and  _94
REMARK   40  A    between atoms: _94  and  _95
REMARK   41  A    between atoms: _94  and  _97
REMARK   42  A    between atoms: _97  and  _98
REMARK   43  A    between atoms: _101  and  _103
REMARK   44  A    between atoms: _103  and  _104
REMARK   45  A    between atoms: _103  and  _106
REMARK   46  A    between atoms: _109  and  _111
REMARK   47  A    between atoms: _111  and  _112
REMARK   48  A    between atoms: _111  and  _114
REMARK   49  A    between atoms: _114  and  _115
REMARK   50  A    between atoms: _115  and  _116
REMARK   51  A    between atoms: _116  and  _117
REMARK   52  A    between atoms: _117  and  _118
REMARK   53  A    between atoms: _122  and  _124
REMARK   54  A    between atoms: _124  and  _125
REMARK   55  A    between atoms: _124  and  _127
REMARK   56  A    between atoms: _127  and  _128
REMARK   57  A    between atoms: _128  and  _129
REMARK   58  A    between atoms: _131  and  _133
REMARK   59  A    between atoms: _133  and  _134
REMARK   60  A    between atoms: _133  and  _136
REMARK   61  A    between atoms: _136  and  _137
REMARK   62  A    between atoms: _140  and  _142
REMARK   63  A    between atoms: _142  and  _143
REMARK   64  A    between atoms: _145  and  _147
REMARK   65  A    between atoms: _147  and  _148
REMARK   66  A    between atoms: _150  and  _152
REMARK   67  A    between atoms: _152  and  _153
REMARK   68  A    between atoms: _152  and  _155
REMARK   69  A    between atoms: _155  and  _156
REMARK   70  A    between atoms: _159  and  _161
REMARK   71  A    between atoms: _161  and  _162
REMARK   72  A    between atoms: _164  and  _166
REMARK   73  A    between atoms: _166  and  _167
REMARK   74  A    between atoms: _169  and  _171
REMARK   75  A    between atoms: _171  and  _172
REMARK   76  A    between atoms: _171  and  _174
REMARK   77  A    between atoms: _174  and  _175
REMARK   78  A    between atoms: _181  and  _183
REMARK   79  A    between atoms: _183  and  _184
REMARK   80  A    between atoms: _183  and  _186
REMARK   81  A    between atoms: _186  and  _187
REMARK   82  A    between atoms: _190  and  _192
REMARK   83  A    between atoms: _192  and  _193
REMARK   84  A    between atoms: _192  and  _195
REMARK   85  A    between atoms: _195  and  _196
REMARK   86  A    between atoms: _199  and  _201
REMARK   87  A    between atoms: _201  and  _202
REMARK   88  A    between atoms: _201  and  _204
REMARK   89  A    between atoms: _204  and  _205
REMARK   90  A    between atoms: _209  and  _210
REMARK   91  A    between atoms: _215  and  _217
REMARK   92  A    between atoms: _217  and  _218
REMARK   93  A    between atoms: _217  and  _220
REMARK   94  A    between atoms: _223  and  _225
REMARK   95  A    between atoms: _225  and  _226
REMARK   96  A    between atoms: _225  and  _228
REMARK   97  A    between atoms: _228  and  _229
REMARK   98  A    between atoms: _234  and  _236
REMARK   99  A    between atoms: _236  and  _237
REMARK  100  A    between atoms: _236  and  _239
REMARK  101  A    between atoms: _239  and  _240
REMARK  102  A    between atoms: _243  and  _245
REMARK  103  A    between atoms: _245  and  _246
REMARK  104  A    between atoms: _245  and  _248
REMARK  105  A    between atoms: _248  and  _249
REMARK  106  A    between atoms: _252  and  _254
REMARK  107  A    between atoms: _254  and  _255
REMARK  108  A    between atoms: _257  and  _259
REMARK  109  A    between atoms: _259  and  _260
REMARK  110  A    between atoms: _259  and  _262
REMARK  111  A    between atoms: _262  and  _263
REMARK  112  A    between atoms: _263  and  _264
REMARK  113  A    between atoms: _264  and  _265
REMARK  114  A    between atoms: _274  and  _276
REMARK  115  A    between atoms: _276  and  _277
REMARK  116  A    between atoms: _276  and  _279
REMARK  117  A    between atoms: _279  and  _280
REMARK  118  A    between atoms: _283  and  _285
REMARK  119  A    between atoms: _285  and  _286
REMARK  120  A    between atoms: _285  and  _288
REMARK  121  A    between atoms: _288  and  _289
REMARK  122  A    between atoms: _289  and  _290
REMARK  123  A    between atoms: _290  and  _291
REMARK  124  A    between atoms: _300  and  _302
REMARK  125  A    between atoms: _302  and  _303
REMARK  126  A    between atoms: _302  and  _305
REMARK  127  A    between atoms: _305  and  _306
REMARK  128  A    between atoms: _309  and  _311
REMARK  129  A    between atoms: _311  and  _312
REMARK  130  A    between atoms: _311  and  _314
REMARK  131  A    between atoms: _314  and  _315
REMARK  132  A    between atoms: _318  and  _320
REMARK  133  A    between atoms: _320  and  _321
REMARK  134  A    between atoms: _320  and  _323
REMARK  135  A    between atoms: _323  and  _324
REMARK  136  A    between atoms: _327  and  _329
REMARK  137  A    between atoms: _329  and  _330
REMARK  138  A    between atoms: _329  and  _332
REMARK  139  A    between atoms: _332  and  _333
REMARK  140  A    between atoms: _336  and  _338
REMARK  141  A    between atoms: _338  and  _339
REMARK  142  A    between atoms: _341  and  _343
REMARK  143  A    between atoms: _343  and  _344
REMARK  144  A    between atoms: _347  and  _349
REMARK  145  A    between atoms: _349  and  _350
REMARK  146  A    between atoms: _349  and  _352
REMARK  147  A    between atoms: _352  and  _353
REMARK  148  A    between atoms: _356  and  _358
REMARK  149  A    between atoms: _358  and  _359
REMARK  150  A    between atoms: _358  and  _361
REMARK  151  A    between atoms: _361  and  _362
REMARK  152  A    between atoms: _365  and  _367
REMARK  153  A    between atoms: _367  and  _368
REMARK  154  A    between atoms: _367  and  _370
REMARK  155  A    between atoms: _370  and  _371
REMARK  156  A    between atoms: _374  and  _376
REMARK  157  A    between atoms: _376  and  _377
REMARK  158  A    between atoms: _376  and  _379
REMARK  159  A    between atoms: _382  and  _384
REMARK  160  A    between atoms: _384  and  _385
REMARK  161  A    between atoms: _384  and  _387
REMARK  162  A    between atoms: _387  and  _388
REMARK  163  A    between atoms: _388  and  _389
REMARK  164  A    between atoms: _389  and  _390
REMARK  165  A    between atoms: _390  and  _391
REMARK  166  A    between atoms: _395  and  _397
REMARK  167  A    between atoms: _397  and  _398
REMARK  168  A    between atoms: _397  and  _400
REMARK  169  A    between atoms: _400  and  _401
REMARK  170  A    between atoms: _401  and  _402
REMARK  171  A    between atoms: _404  and  _406
REMARK  172  A    between atoms: _406  and  _407
REMARK  173  A    between atoms: _406  and  _409
REMARK  174  A    between atoms: _409  and  _410
REMARK  175  A    between atoms: _413  and  _415
REMARK  176  A    between atoms: _415  and  _416
REMARK  177  A    between atoms: _418  and  _420
REMARK  178  A    between atoms: _420  and  _421
REMARK  179  A    between atoms: _423  and  _425
REMARK  180  A    between atoms: _425  and  _426
REMARK  181  A    between atoms: _425  and  _428
REMARK  182  A    between atoms: _428  and  _429
REMARK  183  A    between atoms: _432  and  _434
REMARK  184  A    between atoms: _434  and  _435
REMARK  185  A    between atoms: _437  and  _439
REMARK  186  A    between atoms: _439  and  _440
REMARK  187  A    between atoms: _442  and  _444
REMARK  188  A    between atoms: _444  and  _445
REMARK  189  A    between atoms: _444  and  _447
REMARK  190  A    between atoms: _447  and  _448
REMARK  191  A    between atoms: _454  and  _456
REMARK  192  A    between atoms: _456  and  _457
REMARK  193  A    between atoms: _456  and  _459
REMARK  194  A    between atoms: _459  and  _460
REMARK  195  A    between atoms: _463  and  _465
REMARK  196  A    between atoms: _465  and  _466
REMARK  197  A    between atoms: _465  and  _468
REMARK  198  A    between atoms: _471  and  _473
REMARK  199  A    between atoms: _473  and  _474
REMARK  200  A    between atoms: _473  and  _476
REMARK  201  A    between atoms: _476  and  _477
REMARK  202  A    between atoms: _481  and  _482
REMARK  203  A    between atoms: _487  and  _489
REMARK  204  A    between atoms: _489  and  _490
REMARK  205  A    between atoms: _489  and  _492
REMARK  206  A    between atoms: _492  and  _493
REMARK  207  A    between atoms: _497  and  _498
REMARK  208  A    between atoms: _503  and  _505
REMARK  209  A    between atoms: _505  and  _506
REMARK  210  A    between atoms: _505  and  _508
REMARK  211  A    between atoms: _511  and  _513
REMARK  212  A    between atoms: _513  and  _514
REMARK  213  A    between atoms: _513  and  _516
REMARK  214  A    between atoms: _516  and  _517
REMARK  215  A    between atoms: _522  and  _524
REMARK  216  A    between atoms: _524  and  _525
REMARK  217  A    between atoms: _524  and  _527
REMARK  218  A    between atoms: _527  and  _528
REMARK  219  A    between atoms: _531  and  _533
REMARK  220  A    between atoms: _533  and  _534
REMARK  221  A    between atoms: _533  and  _536
REMARK  222  A    between atoms: _536  and  _537
REMARK  223  A    between atoms: _540  and  _542
REMARK  224  A    between atoms: _542  and  _543
REMARK  225  A    between atoms: _545  and  _547
REMARK  226  A    between atoms: _547  and  _548
REMARK  227  A    between atoms: _547  and  _550
REMARK  228  A    between atoms: _550  and  _551
REMARK  229  A    between atoms: _551  and  _552
REMARK  230  A    between atoms: _552  and  _553
REMARK  231  A    between atoms: _562  and  _564
REMARK  232  A    between atoms: _564  and  _565
REMARK  233  A    between atoms: _564  and  _567
REMARK  234  A    between atoms: _567  and  _568
REMARK                            x       y       z     vdW  Elec       q    Type
REMARK                         _______ _______ _______ _____ _____    ______ ____
ROOT
ATOM      1  O   HOH     1      25.101  24.331  22.531  0.00  0.00    +0.000 OA
ENDROOT
TORSDOF 0
REMARK  Name = ../refined-set-2016/3vfb/3vfb_pocket.pdb
REMARK  234 active torsions:
REMARK  status: ('A' for Active; 'I' for Inactive)
REMARK    1  A    between atoms: _1  and  _3
REMARK    2  A    between atoms: _3  and  _4
REMARK    3  A    between atoms: _3  and  _6
REMARK    4  A    between atoms: _6  and  _7
REMARK    5  A    between atoms: _7  and  _8
REMARK    6  A    between atoms: _8  and  _9
REMARK    7  A    between atoms: _18  and  _20
REMARK    8  A    between atoms: _20  and  _21
REMARK    9  A    between atoms: _20  and  _23
REMARK   10  A    between atoms: _23  and  _24
REMARK   11  A    between atoms: _27  and  _29
REMARK   12  A    between atoms: _29  and  _30
REMARK   13  A    between atoms: _29  and  _32
REMARK   14  A    between atoms: _32  and  _33
REMARK   15  A    between atoms: _36  and  _38
REMARK   16  A    between atoms: _38  and  _39
REMARK   17  A    between atoms: _38  and  _41
REMARK   18  A    between atoms: _41  and  _42
REMARK   19  A    between atoms: _45  and  _47
REMARK   20  A    between atoms: _47  and  _48
REMARK   21  A    between atoms: _47  and  _50
REMARK   22  A    between atoms: _50  and  _51
REMARK   23  A    between atoms: _54  and  _56
REMARK   24  A    between atoms: _56  and  _57
REMARK   25  A    between atoms: _56  and  _59
REMARK   26  A    between atoms: _59  and  _60
REMARK   27  A    between atoms: _63  and  _65
REMARK   28  A    between atoms: _65  and  _66
REMARK   29  A    between atoms: _68  and  _70
REMARK   30  A    between atoms: _70  and  _71
REMARK   31  A    between atoms: _74  and  _76
REMARK   32  A    between atoms: _76  and  _77
REMARK   33  A    between atoms: _76  and  _79
REMARK   34  A    between atoms: _79  and  _80
REMARK   35  A    between atoms: _83  and  _85
REMARK   36  A    between atoms: _85  and  _86
REMARK   37  A    between atoms: _85  and  _88
REMARK   38  A    between atoms: _88  and  _89
REMARK   39  A    between atoms: _92  and  _94
REMARK   40  A    between atoms: _94  and  _95
REMARK   41  A    between atoms: _94  and  _97
REMARK   42  A    between atoms: _97  and  _98
REMARK   43  A    between atoms: _101  and  _103
REMARK   44  A    between atoms: _103  and  _104
REMARK   45  A    between atoms: _103  and  _106
REMARK   46  A    between atoms: _109  and  _111
REMARK   47  A    between atoms: _111  and  _112
REMARK   48  A    between atoms: _111  and  _114
REMARK   49  A    between atoms: _114  and  _115
REMARK   50  A    between atoms: _115  and  _116
REMARK   51  A    between atoms: _116  and  _117
REMARK   52  A    between atoms: _117  and  _118
REMARK   53  A    between atoms: _122  and  _124
REMARK   54  A    between atoms: _124  and  _125
REMARK   55  A    between atoms: _124  and  _127
REMARK   56  A    between atoms: _127  and  _128
REMARK   57  A    between atoms: _128  and  _129
REMARK   58  A    between atoms: _131  and  _133
REMARK   59  A    between atoms: _133  and  _134
REMARK   60  A    between atoms: _133  and  _136
REMARK   61  A    between atoms: _136  and  _137
REMARK   62  A    between atoms: _140  and  _142
REMARK   63  A    between atoms: _142  and  _143
REMARK   64  A    between atoms: _145  and  _147
REMARK   65  A    between atoms: _147  and  _148
REMARK   66  A    between atoms: _150  and  _152
REMARK   67  A    between atoms: _152  and  _153
REMARK   68  A    between atoms: _152  and  _155
REMARK   69  A    between atoms: _155  and  _156
REMARK   70  A    between atoms: _159  and  _161
REMARK   71  A    between atoms: _161  and  _162
REMARK   72  A    between atoms: _164  and  _166
REMARK   73  A    between atoms: _166  and  _167
REMARK   74  A    between atoms: _169  and  _171
REMARK   75  A    between atoms: _171  and  _172
REMARK   76  A    between atoms: _171  and  _174
REMARK   77  A    between atoms: _174  and  _175
REMARK   78  A    between atoms: _181  and  _183
REMARK   79  A    between atoms: _183  and  _184
REMARK   80  A    between atoms: _183  and  _186
REMARK   81  A    between atoms: _186  and  _187
REMARK   82  A    between atoms: _190  and  _192
REMARK   83  A    between atoms: _192  and  _193
REMARK   84  A    between atoms: _192  and  _195
REMARK   85  A    between atoms: _195  and  _196
REMARK   86  A    between atoms: _199  and  _201
REMARK   87  A    between atoms: _201  and  _202
REMARK   88  A    between atoms: _201  and  _204
REMARK   89  A    between atoms: _204  and  _205
REMARK   90  A    between atoms: _209  and  _210
REMARK   91  A    between atoms: _215  and  _217
REMARK   92  A    between atoms: _217  and  _218
REMARK   93  A    between atoms: _217  and  _220
REMARK   94  A    between atoms: _223  and  _225
REMARK   95  A    between atoms: _225  and  _226
REMARK   96  A    between atoms: _225  and  _228
REMARK   97  A    between atoms: _228  and  _229
REMARK   98  A    between atoms: _234  and  _236
REMARK   99  A    between atoms: _236  and  _237
REMARK  100  A    between atoms: _236  and  _239
REMARK  101  A    between atoms: _239  and  _240
REMARK  102  A    between atoms: _243  and  _245
REMARK  103  A    between atoms: _245  and  _246
REMARK  104  A    between atoms: _245  and  _248
REMARK  105  A    between atoms: _248  and  _249
REMARK  106  A    between atoms: _252  and  _254
REMARK  107  A    between atoms: _254  and  _255
REMARK  108  A    between atoms: _257  and  _259
REMARK  109  A    between atoms: _259  and  _260
REMARK  110  A    between atoms: _259  and  _262
REMARK  111  A    between atoms: _262  and  _263
REMARK  112  A    between atoms: _263  and  _264
REMARK  113  A    between atoms: _264  and  _265
REMARK  114  A    between atoms: _274  and  _276
REMARK  115  A    between atoms: _276  and  _277
REMARK  116  A    between atoms: _276  and  _279
REMARK  117  A    between atoms: _279  and  _280
REMARK  118  A    between atoms: _283  and  _285
REMARK  119  A    between atoms: _285  and  _286
REMARK  120  A    between atoms: _285  and  _288
REMARK  121  A    between atoms: _288  and  _289
REMARK  122  A    between atoms: _289  and  _290
REMARK  123  A    between atoms: _290  and  _291
REMARK  124  A    between atoms: _300  and  _302
REMARK  125  A    between atoms: _302  and  _303
REMARK  126  A    between atoms: _302  and  _305
REMARK  127  A    between atoms: _305  and  _306
REMARK  128  A    between atoms: _309  and  _311
REMARK  129  A    between atoms: _311  and  _312
REMARK  130  A    between atoms: _311  and  _314
REMARK  131  A    between atoms: _314  and  _315
REMARK  132  A    between atoms: _318  and  _320
REMARK  133  A    between atoms: _320  and  _321
REMARK  134  A    between atoms: _320  and  _323
REMARK  135  A    between atoms: _323  and  _324
REMARK  136  A    between atoms: _327  and  _329
REMARK  137  A    between atoms: _329  and  _330
REMARK  138  A    between atoms: _329  and  _332
REMARK  139  A    between atoms: _332  and  _333
REMARK  140  A    between atoms: _336  and  _338
REMARK  141  A    between atoms: _338  and  _339
REMARK  142  A    between atoms: _341  and  _343
REMARK  143  A    between atoms: _343  and  _344
REMARK  144  A    between atoms: _347  and  _349
REMARK  145  A    between atoms: _349  and  _350
REMARK  146  A    between atoms: _349  and  _352
REMARK  147  A    between atoms: _352  and  _353
REMARK  148  A    between atoms: _356  and  _358
REMARK  149  A    between atoms: _358  and  _359
REMARK  150  A    between atoms: _358  and  _361
REMARK  151  A    between atoms: _361  and  _362
REMARK  152  A    between atoms: _365  and  _367
REMARK  153  A    between atoms: _367  and  _368
REMARK  154  A    between atoms: _367  and  _370
REMARK  155  A    between atoms: _370  and  _371
REMARK  156  A    between atoms: _374  and  _376
REMARK  157  A    between atoms: _376  and  _377
REMARK  158  A    between atoms: _376  and  _379
REMARK  159  A    between atoms: _382  and  _384
REMARK  160  A    between atoms: _384  and  _385
REMARK  161  A    between atoms: _384  and  _387
REMARK  162  A    between atoms: _387  and  _388
REMARK  163  A    between atoms: _388  and  _389
REMARK  164  A    between atoms: _389  and  _390
REMARK  165  A    between atoms: _390  and  _391
REMARK  166  A    between atoms: _395  and  _397
REMARK  167  A    between atoms: _397  and  _398
REMARK  168  A    between atoms: _397  and  _400
REMARK  169  A    between atoms: _400  and  _401
REMARK  170  A    between atoms: _401  and  _402
REMARK  171  A    between atoms: _404  and  _406
REMARK  172  A    between atoms: _406  and  _407
REMARK  173  A    between atoms: _406  and  _409
REMARK  174  A    between atoms: _409  and  _410
REMARK  175  A    between atoms: _413  and  _415
REMARK  176  A    between atoms: _415  and  _416
REMARK  177  A    between atoms: _418  and  _420
REMARK  178  A    between atoms: _420  and  _421
REMARK  179  A    between atoms: _423  and  _425
REMARK  180  A    between atoms: _425  and  _426
REMARK  181  A    between atoms: _425  and  _428
REMARK  182  A    between atoms: _428  and  _429
REMARK  183  A    between atoms: _432  and  _434
REMARK  184  A    between atoms: _434  and  _435
REMARK  185  A    between atoms: _437  and  _439
REMARK  186  A    between atoms: _439  and  _440
REMARK  187  A    between atoms: _442  and  _444
REMARK  188  A    between atoms: _444  and  _445
REMARK  189  A    between atoms: _444  and  _447
REMARK  190  A    between atoms: _447  and  _448
REMARK  191  A    between atoms: _454  and  _456
REMARK  192  A    between atoms: _456  and  _457
REMARK  193  A    between atoms: _456  and  _459
REMARK  194  A    between atoms: _459  and  _460
REMARK  195  A    between atoms: _463  and  _465
REMARK  196  A    between atoms: _465  and  _466
REMARK  197  A    between atoms: _465  and  _468
REMARK  198  A    between atoms: _471  and  _473
REMARK  199  A    between atoms: _473  and  _474
REMARK  200  A    between atoms: _473  and  _476
REMARK  201  A    between atoms: _476  and  _477
REMARK  202  A    between atoms: _481  and  _482
REMARK  203  A    between atoms: _487  and  _489
REMARK  204  A    between atoms: _489  and  _490
REMARK  205  A    between atoms: _489  and  _492
REMARK  206  A    between atoms: _492  and  _493
REMARK  207  A    between atoms: _497  and  _498
REMARK  208  A    between atoms: _503  and  _505
REMARK  209  A    between atoms: _505  and  _506
REMARK  210  A    between atoms: _505  and  _508
REMARK  211  A    between atoms: _511  and  _513
REMARK  212  A    between atoms: _513  and  _514
REMARK  213  A    between atoms: _513  and  _516
REMARK  214  A    between atoms: _516  and  _517
REMARK  215  A    between atoms: _522  and  _524
REMARK  216  A    between atoms: _524  and  _525
REMARK  217  A    between atoms: _524  and  _527
REMARK  218  A    between atoms: _527  and  _528
REMARK  219  A    between atoms: _531  and  _533
REMARK  220  A    between atoms: _533  and  _534
REMARK  221  A    between atoms: _533  and  _536
REMARK  222  A    between atoms: _536  and  _537
REMARK  223  A    between atoms: _540  and  _542
REMARK  224  A    between atoms: _542  and  _543
REMARK  225  A    between atoms: _545  and  _547
REMARK  226  A    between atoms: _547  and  _548
REMARK  227  A    between atoms: _547  and  _550
REMARK  228  A    between atoms: _550  and  _551
REMARK  229  A    between atoms: _551  and  _552
REMARK  230  A    between atoms: _552  and  _553
REMARK  231  A    between atoms: _562  and  _564
REMARK  232  A    between atoms: _564  and  _565
REMARK  233  A    between atoms: _564  and  _567
REMARK  234  A    between atoms: _567  and  _568
REMARK                            x       y       z     vdW  Elec       q    Type
REMARK                         _______ _______ _______ _____ _____    ______ ____
ROOT
ATOM      1  O   HOH     1       6.132  15.293  25.545  0.00  0.00    +0.000 OA
ENDROOT
TORSDOF 0
REMARK  Name = ../refined-set-2016/3vfb/3vfb_pocket.pdb
REMARK  234 active torsions:
REMARK  status: ('A' for Active; 'I' for Inactive)
REMARK    1  A    between atoms: _1  and  _3
REMARK    2  A    between atoms: _3  and  _4
REMARK    3  A    between atoms: _3  and  _6
REMARK    4  A    between atoms: _6  and  _7
REMARK    5  A    between atoms: _7  and  _8
REMARK    6  A    between atoms: _8  and  _9
REMARK    7  A    between atoms: _18  and  _20
REMARK    8  A    between atoms: _20  and  _21
REMARK    9  A    between atoms: _20  and  _23
REMARK   10  A    between atoms: _23  and  _24
REMARK   11  A    between atoms: _27  and  _29
REMARK   12  A    between atoms: _29  and  _30
REMARK   13  A    between atoms: _29  and  _32
REMARK   14  A    between atoms: _32  and  _33
REMARK   15  A    between atoms: _36  and  _38
REMARK   16  A    between atoms: _38  and  _39
REMARK   17  A    between atoms: _38  and  _41
REMARK   18  A    between atoms: _41  and  _42
REMARK   19  A    between atoms: _45  and  _47
REMARK   20  A    between atoms: _47  and  _48
REMARK   21  A    between atoms: _47  and  _50
REMARK   22  A    between atoms: _50  and  _51
REMARK   23  A    between atoms: _54  and  _56
REMARK   24  A    between atoms: _56  and  _57
REMARK   25  A    between atoms: _56  and  _59
REMARK   26  A    between atoms: _59  and  _60
REMARK   27  A    between atoms: _63  and  _65
REMARK   28  A    between atoms: _65  and  _66
REMARK   29  A    between atoms: _68  and  _70
REMARK   30  A    between atoms: _70  and  _71
REMARK   31  A    between atoms: _74  and  _76
REMARK   32  A    between atoms: _76  and  _77
REMARK   33  A    between atoms: _76  and  _79
REMARK   34  A    between atoms: _79  and  _80
REMARK   35  A    between atoms: _83  and  _85
REMARK   36  A    between atoms: _85  and  _86
REMARK   37  A    between atoms: _85  and  _88
REMARK   38  A    between atoms: _88  and  _89
REMARK   39  A    between atoms: _92  and  _94
REMARK   40  A    between atoms: _94  and  _95
REMARK   41  A    between atoms: _94  and  _97
REMARK   42  A    between atoms: _97  and  _98
REMARK   43  A    between atoms: _101  and  _103
REMARK   44  A    between atoms: _103  and  _104
REMARK   45  A    between atoms: _103  and  _106
REMARK   46  A    between atoms: _109  and  _111
REMARK   47  A    between atoms: _111  and  _112
REMARK   48  A    between atoms: _111  and  _114
REMARK   49  A    between atoms: _114  and  _115
REMARK   50  A    between atoms: _115  and  _116
REMARK   51  A    between atoms: _116  and  _117
REMARK   52  A    between atoms: _117  and  _118
REMARK   53  A    between atoms: _122  and  _124
REMARK   54  A    between atoms: _124  and  _125
REMARK   55  A    between atoms: _124  and  _127
REMARK   56  A    between atoms: _127  and  _128
REMARK   57  A    between atoms: _128  and  _129
REMARK   58  A    between atoms: _131  and  _133
REMARK   59  A    between atoms: _133  and  _134
REMARK   60  A    between atoms: _133  and  _136
REMARK   61  A    between atoms: _136  and  _137
REMARK   62  A    between atoms: _140  and  _142
REMARK   63  A    between atoms: _142  and  _143
REMARK   64  A    between atoms: _145  and  _147
REMARK   65  A    between atoms: _147  and  _148
REMARK   66  A    between atoms: _150  and  _152
REMARK   67  A    between atoms: _152  and  _153
REMARK   68  A    between atoms: _152  and  _155
REMARK   69  A    between atoms: _155  and  _156
REMARK   70  A    between atoms: _159  and  _161
REMARK   71  A    between atoms: _161  and  _162
REMARK   72  A    between atoms: _164  and  _166
REMARK   73  A    between atoms: _166  and  _167
REMARK   74  A    between atoms: _169  and  _171
REMARK   75  A    between atoms: _171  and  _172
REMARK   76  A    between atoms: _171  and  _174
REMARK   77  A    between atoms: _174  and  _175
REMARK   78  A    between atoms: _181  and  _183
REMARK   79  A    between atoms: _183  and  _184
REMARK   80  A    between atoms: _183  and  _186
REMARK   81  A    between atoms: _186  and  _187
REMARK   82  A    between atoms: _190  and  _192
REMARK   83  A    between atoms: _192  and  _193
REMARK   84  A    between atoms: _192  and  _195
REMARK   85  A    between atoms: _195  and  _196
REMARK   86  A    between atoms: _199  and  _201
REMARK   87  A    between atoms: _201  and  _202
REMARK   88  A    between atoms: _201  and  _204
REMARK   89  A    between atoms: _204  and  _205
REMARK   90  A    between atoms: _209  and  _210
REMARK   91  A    between atoms: _215  and  _217
REMARK   92  A    between atoms: _217  and  _218
REMARK   93  A    between atoms: _217  and  _220
REMARK   94  A    between atoms: _223  and  _225
REMARK   95  A    between atoms: _225  and  _226
REMARK   96  A    between atoms: _225  and  _228
REMARK   97  A    between atoms: _228  and  _229
REMARK   98  A    between atoms: _234  and  _236
REMARK   99  A    between atoms: _236  and  _237
REMARK  100  A    between atoms: _236  and  _239
REMARK  101  A    between atoms: _239  and  _240
REMARK  102  A    between atoms: _243  and  _245
REMARK  103  A    between atoms: _245  and  _246
REMARK  104  A    between atoms: _245  and  _248
REMARK  105  A    between atoms: _248  and  _249
REMARK  106  A    between atoms: _252  and  _254
REMARK  107  A    between atoms: _254  and  _255
REMARK  108  A    between atoms: _257  and  _259
REMARK  109  A    between atoms: _259  and  _260
REMARK  110  A    between atoms: _259  and  _262
REMARK  111  A    between atoms: _262  and  _263
REMARK  112  A    between atoms: _263  and  _264
REMARK  113  A    between atoms: _264  and  _265
REMARK  114  A    between atoms: _274  and  _276
REMARK  115  A    between atoms: _276  and  _277
REMARK  116  A    between atoms: _276  and  _279
REMARK  117  A    between atoms: _279  and  _280
REMARK  118  A    between atoms: _283  and  _285
REMARK  119  A    between atoms: _285  and  _286
REMARK  120  A    between atoms: _285  and  _288
REMARK  121  A    between atoms: _288  and  _289
REMARK  122  A    between atoms: _289  and  _290
REMARK  123  A    between atoms: _290  and  _291
REMARK  124  A    between atoms: _300  and  _302
REMARK  125  A    between atoms: _302  and  _303
REMARK  126  A    between atoms: _302  and  _305
REMARK  127  A    between atoms: _305  and  _306
REMARK  128  A    between atoms: _309  and  _311
REMARK  129  A    between atoms: _311  and  _312
REMARK  130  A    between atoms: _311  and  _314
REMARK  131  A    between atoms: _314  and  _315
REMARK  132  A    between atoms: _318  and  _320
REMARK  133  A    between atoms: _320  and  _321
REMARK  134  A    between atoms: _320  and  _323
REMARK  135  A    between atoms: _323  and  _324
REMARK  136  A    between atoms: _327  and  _329
REMARK  137  A    between atoms: _329  and  _330
REMARK  138  A    between atoms: _329  and  _332
REMARK  139  A    between atoms: _332  and  _333
REMARK  140  A    between atoms: _336  and  _338
REMARK  141  A    between atoms: _338  and  _339
REMARK  142  A    between atoms: _341  and  _343
REMARK  143  A    between atoms: _343  and  _344
REMARK  144  A    between atoms: _347  and  _349
REMARK  145  A    between atoms: _349  and  _350
REMARK  146  A    between atoms: _349  and  _352
REMARK  147  A    between atoms: _352  and  _353
REMARK  148  A    between atoms: _356  and  _358
REMARK  149  A    between atoms: _358  and  _359
REMARK  150  A    between atoms: _358  and  _361
REMARK  151  A    between atoms: _361  and  _362
REMARK  152  A    between atoms: _365  and  _367
REMARK  153  A    between atoms: _367  and  _368
REMARK  154  A    between atoms: _367  and  _370
REMARK  155  A    between atoms: _370  and  _371
REMARK  156  A    between atoms: _374  and  _376
REMARK  157  A    between atoms: _376  and  _377
REMARK  158  A    between atoms: _376  and  _379
REMARK  159  A    between atoms: _382  and  _384
REMARK  160  A    between atoms: _384  and  _385
REMARK  161  A    between atoms: _384  and  _387
REMARK  162  A    between atoms: _387  and  _388
REMARK  163  A    between atoms: _388  and  _389
REMARK  164  A    between atoms: _389  and  _390
REMARK  165  A    between atoms: _390  and  _391
REMARK  166  A    between atoms: _395  and  _397
REMARK  167  A    between atoms: _397  and  _398
REMARK  168  A    between atoms: _397  and  _400
REMARK  169  A    between atoms: _400  and  _401
REMARK  170  A    between atoms: _401  and  _402
REMARK  171  A    between atoms: _404  and  _406
REMARK  172  A    between atoms: _406  and  _407
REMARK  173  A    between atoms: _406  and  _409
REMARK  174  A    between atoms: _409  and  _410
REMARK  175  A    between atoms: _413  and  _415
REMARK  176  A    between atoms: _415  and  _416
REMARK  177  A    between atoms: _418  and  _420
REMARK  178  A    between atoms: _420  and  _421
REMARK  179  A    between atoms: _423  and  _425
REMARK  180  A    between atoms: _425  and  _426
REMARK  181  A    between atoms: _425  and  _428
REMARK  182  A    between atoms: _428  and  _429
REMARK  183  A    between atoms: _432  and  _434
REMARK  184  A    between atoms: _434  and  _435
REMARK  185  A    between atoms: _437  and  _439
REMARK  186  A    between atoms: _439  and  _440
REMARK  187  A    between atoms: _442  and  _444
REMARK  188  A    between atoms: _444  and  _445
REMARK  189  A    between atoms: _444  and  _447
REMARK  190  A    between atoms: _447  and  _448
REMARK  191  A    between atoms: _454  and  _456
REMARK  192  A    between atoms: _456  and  _457
REMARK  193  A    between atoms: _456  and  _459
REMARK  194  A    between atoms: _459  and  _460
REMARK  195  A    between atoms: _463  and  _465
REMARK  196  A    between atoms: _465  and  _466
REMARK  197  A    between atoms: _465  and  _468
REMARK  198  A    between atoms: _471  and  _473
REMARK  199  A    between atoms: _473  and  _474
REMARK  200  A    between atoms: _473  and  _476
REMARK  201  A    between atoms: _476  and  _477
REMARK  202  A    between atoms: _481  and  _482
REMARK  203  A    between atoms: _487  and  _489
REMARK  204  A    between atoms: _489  and  _490
REMARK  205  A    between atoms: _489  and  _492
REMARK  206  A    between atoms: _492  and  _493
REMARK  207  A    between atoms: _497  and  _498
REMARK  208  A    between atoms: _503  and  _505
REMARK  209  A    between atoms: _505  and  _506
REMARK  210  A    between atoms: _505  and  _508
REMARK  211  A    between atoms: _511  and  _513
REMARK  212  A    between atoms: _513  and  _514
REMARK  213  A    between atoms: _513  and  _516
REMARK  214  A    between atoms: _516  and  _517
REMARK  215  A    between atoms: _522  and  _524
REMARK  216  A    between atoms: _524  and  _525
REMARK  217  A    between atoms: _524  and  _527
REMARK  218  A    between atoms: _527  and  _528
REMARK  219  A    between atoms: _531  and  _533
REMARK  220  A    between atoms: _533  and  _534
REMARK  221  A    between atoms: _533  and  _536
REMARK  222  A    between atoms: _536  and  _537
REMARK  223  A    between atoms: _540  and  _542
REMARK  224  A    between atoms: _542  and  _543
REMARK  225  A    between atoms: _545  and  _547
REMARK  226  A    between atoms: _547  and  _548
REMARK  227  A    between atoms: _547  and  _550
REMARK  228  A    between atoms: _550  and  _551
REMARK  229  A    between atoms: _551  and  _552
REMARK  230  A    between atoms: _552  and  _553
REMARK  231  A    between atoms: _562  and  _564
REMARK  232  A    between atoms: _564  and  _565
REMARK  233  A    between atoms: _564  and  _567
REMARK  234  A    between atoms: _567  and  _568
REMARK                            x       y       z     vdW  Elec       q    Type
REMARK                         _______ _______ _______ _____ _____    ______ ____
ROOT
ATOM      1  O   HOH     1       4.439  13.370  26.175  0.00  0.00    +0.000 OA
ENDROOT
TORSDOF 0
REMARK  Name = ../refined-set-2016/3vfb/3vfb_pocket.pdb
REMARK  234 active torsions:
REMARK  status: ('A' for Active; 'I' for Inactive)
REMARK    1  A    between atoms: _1  and  _3
REMARK    2  A    between atoms: _3  and  _4
REMARK    3  A    between atoms: _3  and  _6
REMARK    4  A    between atoms: _6  and  _7
REMARK    5  A    between atoms: _7  and  _8
REMARK    6  A    between atoms: _8  and  _9
REMARK    7  A    between atoms: _18  and  _20
REMARK    8  A    between atoms: _20  and  _21
REMARK    9  A    between atoms: _20  and  _23
REMARK   10  A    between atoms: _23  and  _24
REMARK   11  A    between atoms: _27  and  _29
REMARK   12  A    between atoms: _29  and  _30
REMARK   13  A    between atoms: _29  and  _32
REMARK   14  A    between atoms: _32  and  _33
REMARK   15  A    between atoms: _36  and  _38
REMARK   16  A    between atoms: _38  and  _39
REMARK   17  A    between atoms: _38  and  _41
REMARK   18  A    between atoms: _41  and  _42
REMARK   19  A    between atoms: _45  and  _47
REMARK   20  A    between atoms: _47  and  _48
REMARK   21  A    between atoms: _47  and  _50
REMARK   22  A    between atoms: _50  and  _51
REMARK   23  A    between atoms: _54  and  _56
REMARK   24  A    between atoms: _56  and  _57
REMARK   25  A    between atoms: _56  and  _59
REMARK   26  A    between atoms: _59  and  _60
REMARK   27  A    between atoms: _63  and  _65
REMARK   28  A    between atoms: _65  and  _66
REMARK   29  A    between atoms: _68  and  _70
REMARK   30  A    between atoms: _70  and  _71
REMARK   31  A    between atoms: _74  and  _76
REMARK   32  A    between atoms: _76  and  _77
REMARK   33  A    between atoms: _76  and  _79
REMARK   34  A    between atoms: _79  and  _80
REMARK   35  A    between atoms: _83  and  _85
REMARK   36  A    between atoms: _85  and  _86
REMARK   37  A    between atoms: _85  and  _88
REMARK   38  A    between atoms: _88  and  _89
REMARK   39  A    between atoms: _92  and  _94
REMARK   40  A    between atoms: _94  and  _95
REMARK   41  A    between atoms: _94  and  _97
REMARK   42  A    between atoms: _97  and  _98
REMARK   43  A    between atoms: _101  and  _103
REMARK   44  A    between atoms: _103  and  _104
REMARK   45  A    between atoms: _103  and  _106
REMARK   46  A    between atoms: _109  and  _111
REMARK   47  A    between atoms: _111  and  _112
REMARK   48  A    between atoms: _111  and  _114
REMARK   49  A    between atoms: _114  and  _115
REMARK   50  A    between atoms: _115  and  _116
REMARK   51  A    between atoms: _116  and  _117
REMARK   52  A    between atoms: _117  and  _118
REMARK   53  A    between atoms: _122  and  _124
REMARK   54  A    between atoms: _124  and  _125
REMARK   55  A    between atoms: _124  and  _127
REMARK   56  A    between atoms: _127  and  _128
REMARK   57  A    between atoms: _128  and  _129
REMARK   58  A    between atoms: _131  and  _133
REMARK   59  A    between atoms: _133  and  _134
REMARK   60  A    between atoms: _133  and  _136
REMARK   61  A    between atoms: _136  and  _137
REMARK   62  A    between atoms: _140  and  _142
REMARK   63  A    between atoms: _142  and  _143
REMARK   64  A    between atoms: _145  and  _147
REMARK   65  A    between atoms: _147  and  _148
REMARK   66  A    between atoms: _150  and  _152
REMARK   67  A    between atoms: _152  and  _153
REMARK   68  A    between atoms: _152  and  _155
REMARK   69  A    between atoms: _155  and  _156
REMARK   70  A    between atoms: _159  and  _161
REMARK   71  A    between atoms: _161  and  _162
REMARK   72  A    between atoms: _164  and  _166
REMARK   73  A    between atoms: _166  and  _167
REMARK   74  A    between atoms: _169  and  _171
REMARK   75  A    between atoms: _171  and  _172
REMARK   76  A    between atoms: _171  and  _174
REMARK   77  A    between atoms: _174  and  _175
REMARK   78  A    between atoms: _181  and  _183
REMARK   79  A    between atoms: _183  and  _184
REMARK   80  A    between atoms: _183  and  _186
REMARK   81  A    between atoms: _186  and  _187
REMARK   82  A    between atoms: _190  and  _192
REMARK   83  A    between atoms: _192  and  _193
REMARK   84  A    between atoms: _192  and  _195
REMARK   85  A    between atoms: _195  and  _196
REMARK   86  A    between atoms: _199  and  _201
REMARK   87  A    between atoms: _201  and  _202
REMARK   88  A    between atoms: _201  and  _204
REMARK   89  A    between atoms: _204  and  _205
REMARK   90  A    between atoms: _209  and  _210
REMARK   91  A    between atoms: _215  and  _217
REMARK   92  A    between atoms: _217  and  _218
REMARK   93  A    between atoms: _217  and  _220
REMARK   94  A    between atoms: _223  and  _225
REMARK   95  A    between atoms: _225  and  _226
REMARK   96  A    between atoms: _225  and  _228
REMARK   97  A    between atoms: _228  and  _229
REMARK   98  A    between atoms: _234  and  _236
REMARK   99  A    between atoms: _236  and  _237
REMARK  100  A    between atoms: _236  and  _239
REMARK  101  A    between atoms: _239  and  _240
REMARK  102  A    between atoms: _243  and  _245
REMARK  103  A    between atoms: _245  and  _246
REMARK  104  A    between atoms: _245  and  _248
REMARK  105  A    between atoms: _248  and  _249
REMARK  106  A    between atoms: _252  and  _254
REMARK  107  A    between atoms: _254  and  _255
REMARK  108  A    between atoms: _257  and  _259
REMARK  109  A    between atoms: _259  and  _260
REMARK  110  A    between atoms: _259  and  _262
REMARK  111  A    between atoms: _262  and  _263
REMARK  112  A    between atoms: _263  and  _264
REMARK  113  A    between atoms: _264  and  _265
REMARK  114  A    between atoms: _274  and  _276
REMARK  115  A    between atoms: _276  and  _277
REMARK  116  A    between atoms: _276  and  _279
REMARK  117  A    between atoms: _279  and  _280
REMARK  118  A    between atoms: _283  and  _285
REMARK  119  A    between atoms: _285  and  _286
REMARK  120  A    between atoms: _285  and  _288
REMARK  121  A    between atoms: _288  and  _289
REMARK  122  A    between atoms: _289  and  _290
REMARK  123  A    between atoms: _290  and  _291
REMARK  124  A    between atoms: _300  and  _302
REMARK  125  A    between atoms: _302  and  _303
REMARK  126  A    between atoms: _302  and  _305
REMARK  127  A    between atoms: _305  and  _306
REMARK  128  A    between atoms: _309  and  _311
REMARK  129  A    between atoms: _311  and  _312
REMARK  130  A    between atoms: _311  and  _314
REMARK  131  A    between atoms: _314  and  _315
REMARK  132  A    between atoms: _318  and  _320
REMARK  133  A    between atoms: _320  and  _321
REMARK  134  A    between atoms: _320  and  _323
REMARK  135  A    between atoms: _323  and  _324
REMARK  136  A    between atoms: _327  and  _329
REMARK  137  A    between atoms: _329  and  _330
REMARK  138  A    between atoms: _329  and  _332
REMARK  139  A    between atoms: _332  and  _333
REMARK  140  A    between atoms: _336  and  _338
REMARK  141  A    between atoms: _338  and  _339
REMARK  142  A    between atoms: _341  and  _343
REMARK  143  A    between atoms: _343  and  _344
REMARK  144  A    between atoms: _347  and  _349
REMARK  145  A    between atoms: _349  and  _350
REMARK  146  A    between atoms: _349  and  _352
REMARK  147  A    between atoms: _352  and  _353
REMARK  148  A    between atoms: _356  and  _358
REMARK  149  A    between atoms: _358  and  _359
REMARK  150  A    between atoms: _358  and  _361
REMARK  151  A    between atoms: _361  and  _362
REMARK  152  A    between atoms: _365  and  _367
REMARK  153  A    between atoms: _367  and  _368
REMARK  154  A    between atoms: _367  and  _370
REMARK  155  A    between atoms: _370  and  _371
REMARK  156  A    between atoms: _374  and  _376
REMARK  157  A    between atoms: _376  and  _377
REMARK  158  A    between atoms: _376  and  _379
REMARK  159  A    between atoms: _382  and  _384
REMARK  160  A    between atoms: _384  and  _385
REMARK  161  A    between atoms: _384  and  _387
REMARK  162  A    between atoms: _387  and  _388
REMARK  163  A    between atoms: _388  and  _389
REMARK  164  A    between atoms: _389  and  _390
REMARK  165  A    between atoms: _390  and  _391
REMARK  166  A    between atoms: _395  and  _397
REMARK  167  A    between atoms: _397  and  _398
REMARK  168  A    between atoms: _397  and  _400
REMARK  169  A    between atoms: _400  and  _401
REMARK  170  A    between atoms: _401  and  _402
REMARK  171  A    between atoms: _404  and  _406
REMARK  172  A    between atoms: _406  and  _407
REMARK  173  A    between atoms: _406  and  _409
REMARK  174  A    between atoms: _409  and  _410
REMARK  175  A    between atoms: _413  and  _415
REMARK  176  A    between atoms: _415  and  _416
REMARK  177  A    between atoms: _418  and  _420
REMARK  178  A    between atoms: _420  and  _421
REMARK  179  A    between atoms: _423  and  _425
REMARK  180  A    between atoms: _425  and  _426
REMARK  181  A    between atoms: _425  and  _428
REMARK  182  A    between atoms: _428  and  _429
REMARK  183  A    between atoms: _432  and  _434
REMARK  184  A    between atoms: _434  and  _435
REMARK  185  A    between atoms: _437  and  _439
REMARK  186  A    between atoms: _439  and  _440
REMARK  187  A    between atoms: _442  and  _444
REMARK  188  A    between atoms: _444  and  _445
REMARK  189  A    between atoms: _444  and  _447
REMARK  190  A    between atoms: _447  and  _448
REMARK  191  A    between atoms: _454  and  _456
REMARK  192  A    between atoms: _456  and  _457
REMARK  193  A    between atoms: _456  and  _459
REMARK  194  A    between atoms: _459  and  _460
REMARK  195  A    between atoms: _463  and  _465
REMARK  196  A    between atoms: _465  and  _466
REMARK  197  A    between atoms: _465  and  _468
REMARK  198  A    between atoms: _471  and  _473
REMARK  199  A    between atoms: _473  and  _474
REMARK  200  A    between atoms: _473  and  _476
REMARK  201  A    between atoms: _476  and  _477
REMARK  202  A    between atoms: _481  and  _482
REMARK  203  A    between atoms: _487  and  _489
REMARK  204  A    between atoms: _489  and  _490
REMARK  205  A    between atoms: _489  and  _492
REMARK  206  A    between atoms: _492  and  _493
REMARK  207  A    between atoms: _497  and  _498
REMARK  208  A    between atoms: _503  and  _505
REMARK  209  A    between atoms: _505  and  _506
REMARK  210  A    between atoms: _505  and  _508
REMARK  211  A    between atoms: _511  and  _513
REMARK  212  A    between atoms: _513  and  _514
REMARK  213  A    between atoms: _513  and  _516
REMARK  214  A    between atoms: _516  and  _517
REMARK  215  A    between atoms: _522  and  _524
REMARK  216  A    between atoms: _524  and  _525
REMARK  217  A    between atoms: _524  and  _527
REMARK  218  A    between atoms: _527  and  _528
REMARK  219  A    between atoms: _531  and  _533
REMARK  220  A    between atoms: _533  and  _534
REMARK  221  A    between atoms: _533  and  _536
REMARK  222  A    between atoms: _536  and  _537
REMARK  223  A    between atoms: _540  and  _542
REMARK  224  A    between atoms: _542  and  _543
REMARK  225  A    between atoms: _545  and  _547
REMARK  226  A    between atoms: _547  and  _548
REMARK  227  A    between atoms: _547  and  _550
REMARK  228  A    between atoms: _550  and  _551
REMARK  229  A    between atoms: _551  and  _552
REMARK  230  A    between atoms: _552  and  _553
REMARK  231  A    between atoms: _562  and  _564
REMARK  232  A    between atoms: _564  and  _565
REMARK  233  A    between atoms: _564  and  _567
REMARK  234  A    between atoms: _567  and  _568
REMARK                            x       y       z     vdW  Elec       q    Type
REMARK                         _______ _______ _______ _____ _____    ______ ____
ROOT
ATOM      1  O   HOH     1       2.532  20.814  23.928  0.00  0.00    +0.000 OA
ENDROOT
TORSDOF 0
REMARK  Name = ../refined-set-2016/3vfb/3vfb_pocket.pdb
REMARK  234 active torsions:
REMARK  status: ('A' for Active; 'I' for Inactive)
REMARK    1  A    between atoms: _1  and  _3
REMARK    2  A    between atoms: _3  and  _4
REMARK    3  A    between atoms: _3  and  _6
REMARK    4  A    between atoms: _6  and  _7
REMARK    5  A    between atoms: _7  and  _8
REMARK    6  A    between atoms: _8  and  _9
REMARK    7  A    between atoms: _18  and  _20
REMARK    8  A    between atoms: _20  and  _21
REMARK    9  A    between atoms: _20  and  _23
REMARK   10  A    between atoms: _23  and  _24
REMARK   11  A    between atoms: _27  and  _29
REMARK   12  A    between atoms: _29  and  _30
REMARK   13  A    between atoms: _29  and  _32
REMARK   14  A    between atoms: _32  and  _33
REMARK   15  A    between atoms: _36  and  _38
REMARK   16  A    between atoms: _38  and  _39
REMARK   17  A    between atoms: _38  and  _41
REMARK   18  A    between atoms: _41  and  _42
REMARK   19  A    between atoms: _45  and  _47
REMARK   20  A    between atoms: _47  and  _48
REMARK   21  A    between atoms: _47  and  _50
REMARK   22  A    between atoms: _50  and  _51
REMARK   23  A    between atoms: _54  and  _56
REMARK   24  A    between atoms: _56  and  _57
REMARK   25  A    between atoms: _56  and  _59
REMARK   26  A    between atoms: _59  and  _60
REMARK   27  A    between atoms: _63  and  _65
REMARK   28  A    between atoms: _65  and  _66
REMARK   29  A    between atoms: _68  and  _70
REMARK   30  A    between atoms: _70  and  _71
REMARK   31  A    between atoms: _74  and  _76
REMARK   32  A    between atoms: _76  and  _77
REMARK   33  A    between atoms: _76  and  _79
REMARK   34  A    between atoms: _79  and  _80
REMARK   35  A    between atoms: _83  and  _85
REMARK   36  A    between atoms: _85  and  _86
REMARK   37  A    between atoms: _85  and  _88
REMARK   38  A    between atoms: _88  and  _89
REMARK   39  A    between atoms: _92  and  _94
REMARK   40  A    between atoms: _94  and  _95
REMARK   41  A    between atoms: _94  and  _97
REMARK   42  A    between atoms: _97  and  _98
REMARK   43  A    between atoms: _101  and  _103
REMARK   44  A    between atoms: _103  and  _104
REMARK   45  A    between atoms: _103  and  _106
REMARK   46  A    between atoms: _109  and  _111
REMARK   47  A    between atoms: _111  and  _112
REMARK   48  A    between atoms: _111  and  _114
REMARK   49  A    between atoms: _114  and  _115
REMARK   50  A    between atoms: _115  and  _116
REMARK   51  A    between atoms: _116  and  _117
REMARK   52  A    between atoms: _117  and  _118
REMARK   53  A    between atoms: _122  and  _124
REMARK   54  A    between atoms: _124  and  _125
REMARK   55  A    between atoms: _124  and  _127
REMARK   56  A    between atoms: _127  and  _128
REMARK   57  A    between atoms: _128  and  _129
REMARK   58  A    between atoms: _131  and  _133
REMARK   59  A    between atoms: _133  and  _134
REMARK   60  A    between atoms: _133  and  _136
REMARK   61  A    between atoms: _136  and  _137
REMARK   62  A    between atoms: _140  and  _142
REMARK   63  A    between atoms: _142  and  _143
REMARK   64  A    between atoms: _145  and  _147
REMARK   65  A    between atoms: _147  and  _148
REMARK   66  A    between atoms: _150  and  _152
REMARK   67  A    between atoms: _152  and  _153
REMARK   68  A    between atoms: _152  and  _155
REMARK   69  A    between atoms: _155  and  _156
REMARK   70  A    between atoms: _159  and  _161
REMARK   71  A    between atoms: _161  and  _162
REMARK   72  A    between atoms: _164  and  _166
REMARK   73  A    between atoms: _166  and  _167
REMARK   74  A    between atoms: _169  and  _171
REMARK   75  A    between atoms: _171  and  _172
REMARK   76  A    between atoms: _171  and  _174
REMARK   77  A    between atoms: _174  and  _175
REMARK   78  A    between atoms: _181  and  _183
REMARK   79  A    between atoms: _183  and  _184
REMARK   80  A    between atoms: _183  and  _186
REMARK   81  A    between atoms: _186  and  _187
REMARK   82  A    between atoms: _190  and  _192
REMARK   83  A    between atoms: _192  and  _193
REMARK   84  A    between atoms: _192  and  _195
REMARK   85  A    between atoms: _195  and  _196
REMARK   86  A    between atoms: _199  and  _201
REMARK   87  A    between atoms: _201  and  _202
REMARK   88  A    between atoms: _201  and  _204
REMARK   89  A    between atoms: _204  and  _205
REMARK   90  A    between atoms: _209  and  _210
REMARK   91  A    between atoms: _215  and  _217
REMARK   92  A    between atoms: _217  and  _218
REMARK   93  A    between atoms: _217  and  _220
REMARK   94  A    between atoms: _223  and  _225
REMARK   95  A    between atoms: _225  and  _226
REMARK   96  A    between atoms: _225  and  _228
REMARK   97  A    between atoms: _228  and  _229
REMARK   98  A    between atoms: _234  and  _236
REMARK   99  A    between atoms: _236  and  _237
REMARK  100  A    between atoms: _236  and  _239
REMARK  101  A    between atoms: _239  and  _240
REMARK  102  A    between atoms: _243  and  _245
REMARK  103  A    between atoms: _245  and  _246
REMARK  104  A    between atoms: _245  and  _248
REMARK  105  A    between atoms: _248  and  _249
REMARK  106  A    between atoms: _252  and  _254
REMARK  107  A    between atoms: _254  and  _255
REMARK  108  A    between atoms: _257  and  _259
REMARK  109  A    between atoms: _259  and  _260
REMARK  110  A    between atoms: _259  and  _262
REMARK  111  A    between atoms: _262  and  _263
REMARK  112  A    between atoms: _263  and  _264
REMARK  113  A    between atoms: _264  and  _265
REMARK  114  A    between atoms: _274  and  _276
REMARK  115  A    between atoms: _276  and  _277
REMARK  116  A    between atoms: _276  and  _279
REMARK  117  A    between atoms: _279  and  _280
REMARK  118  A    between atoms: _283  and  _285
REMARK  119  A    between atoms: _285  and  _286
REMARK  120  A    between atoms: _285  and  _288
REMARK  121  A    between atoms: _288  and  _289
REMARK  122  A    between atoms: _289  and  _290
REMARK  123  A    between atoms: _290  and  _291
REMARK  124  A    between atoms: _300  and  _302
REMARK  125  A    between atoms: _302  and  _303
REMARK  126  A    between atoms: _302  and  _305
REMARK  127  A    between atoms: _305  and  _306
REMARK  128  A    between atoms: _309  and  _311
REMARK  129  A    between atoms: _311  and  _312
REMARK  130  A    between atoms: _311  and  _314
REMARK  131  A    between atoms: _314  and  _315
REMARK  132  A    between atoms: _318  and  _320
REMARK  133  A    between atoms: _320  and  _321
REMARK  134  A    between atoms: _320  and  _323
REMARK  135  A    between atoms: _323  and  _324
REMARK  136  A    between atoms: _327  and  _329
REMARK  137  A    between atoms: _329  and  _330
REMARK  138  A    between atoms: _329  and  _332
REMARK  139  A    between atoms: _332  and  _333
REMARK  140  A    between atoms: _336  and  _338
REMARK  141  A    between atoms: _338  and  _339
REMARK  142  A    between atoms: _341  and  _343
REMARK  143  A    between atoms: _343  and  _344
REMARK  144  A    between atoms: _347  and  _349
REMARK  145  A    between atoms: _349  and  _350
REMARK  146  A    between atoms: _349  and  _352
REMARK  147  A    between atoms: _352  and  _353
REMARK  148  A    between atoms: _356  and  _358
REMARK  149  A    between atoms: _358  and  _359
REMARK  150  A    between atoms: _358  and  _361
REMARK  151  A    between atoms: _361  and  _362
REMARK  152  A    between atoms: _365  and  _367
REMARK  153  A    between atoms: _367  and  _368
REMARK  154  A    between atoms: _367  and  _370
REMARK  155  A    between atoms: _370  and  _371
REMARK  156  A    between atoms: _374  and  _376
REMARK  157  A    between atoms: _376  and  _377
REMARK  158  A    between atoms: _376  and  _379
REMARK  159  A    between atoms: _382  and  _384
REMARK  160  A    between atoms: _384  and  _385
REMARK  161  A    between atoms: _384  and  _387
REMARK  162  A    between atoms: _387  and  _388
REMARK  163  A    between atoms: _388  and  _389
REMARK  164  A    between atoms: _389  and  _390
REMARK  165  A    between atoms: _390  and  _391
REMARK  166  A    between atoms: _395  and  _397
REMARK  167  A    between atoms: _397  and  _398
REMARK  168  A    between atoms: _397  and  _400
REMARK  169  A    between atoms: _400  and  _401
REMARK  170  A    between atoms: _401  and  _402
REMARK  171  A    between atoms: _404  and  _406
REMARK  172  A    between atoms: _406  and  _407
REMARK  173  A    between atoms: _406  and  _409
REMARK  174  A    between atoms: _409  and  _410
REMARK  175  A    between atoms: _413  and  _415
REMARK  176  A    between atoms: _415  and  _416
REMARK  177  A    between atoms: _418  and  _420
REMARK  178  A    between atoms: _420  and  _421
REMARK  179  A    between atoms: _423  and  _425
REMARK  180  A    between atoms: _425  and  _426
REMARK  181  A    between atoms: _425  and  _428
REMARK  182  A    between atoms: _428  and  _429
REMARK  183  A    between atoms: _432  and  _434
REMARK  184  A    between atoms: _434  and  _435
REMARK  185  A    between atoms: _437  and  _439
REMARK  186  A    between atoms: _439  and  _440
REMARK  187  A    between atoms: _442  and  _444
REMARK  188  A    between atoms: _444  and  _445
REMARK  189  A    between atoms: _444  and  _447
REMARK  190  A    between atoms: _447  and  _448
REMARK  191  A    between atoms: _454  and  _456
REMARK  192  A    between atoms: _456  and  _457
REMARK  193  A    between atoms: _456  and  _459
REMARK  194  A    between atoms: _459  and  _460
REMARK  195  A    between atoms: _463  and  _465
REMARK  196  A    between atoms: _465  and  _466
REMARK  197  A    between atoms: _465  and  _468
REMARK  198  A    between atoms: _471  and  _473
REMARK  199  A    between atoms: _473  and  _474
REMARK  200  A    between atoms: _473  and  _476
REMARK  201  A    between atoms: _476  and  _477
REMARK  202  A    between atoms: _481  and  _482
REMARK  203  A    between atoms: _487  and  _489
REMARK  204  A    between atoms: _489  and  _490
REMARK  205  A    between atoms: _489  and  _492
REMARK  206  A    between atoms: _492  and  _493
REMARK  207  A    between atoms: _497  and  _498
REMARK  208  A    between atoms: _503  and  _505
REMARK  209  A    between atoms: _505  and  _506
REMARK  210  A    between atoms: _505  and  _508
REMARK  211  A    between atoms: _511  and  _513
REMARK  212  A    between atoms: _513  and  _514
REMARK  213  A    between atoms: _513  and  _516
REMARK  214  A    between atoms: _516  and  _517
REMARK  215  A    between atoms: _522  and  _524
REMARK  216  A    between atoms: _524  and  _525
REMARK  217  A    between atoms: _524  and  _527
REMARK  218  A    between atoms: _527  and  _528
REMARK  219  A    between atoms: _531  and  _533
REMARK  220  A    between atoms: _533  and  _534
REMARK  221  A    between atoms: _533  and  _536
REMARK  222  A    between atoms: _536  and  _537
REMARK  223  A    between atoms: _540  and  _542
REMARK  224  A    between atoms: _542  and  _543
REMARK  225  A    between atoms: _545  and  _547
REMARK  226  A    between atoms: _547  and  _548
REMARK  227  A    between atoms: _547  and  _550
REMARK  228  A    between atoms: _550  and  _551
REMARK  229  A    between atoms: _551  and  _552
REMARK  230  A    between atoms: _552  and  _553
REMARK  231  A    between atoms: _562  and  _564
REMARK  232  A    between atoms: _564  and  _565
REMARK  233  A    between atoms: _564  and  _567
REMARK  234  A    between atoms: _567  and  _568
REMARK                            x       y       z     vdW  Elec       q    Type
REMARK                         _______ _______ _______ _____ _____    ______ ____
ROOT
ATOM      1  O   HOH     1      10.927  12.343  21.420  0.00  0.00    +0.000 OA
ENDROOT
TORSDOF 0
REMARK  Name = ../refined-set-2016/3vfb/3vfb_pocket.pdb
REMARK  234 active torsions:
REMARK  status: ('A' for Active; 'I' for Inactive)
REMARK    1  A    between atoms: _1  and  _3
REMARK    2  A    between atoms: _3  and  _4
REMARK    3  A    between atoms: _3  and  _6
REMARK    4  A    between atoms: _6  and  _7
REMARK    5  A    between atoms: _7  and  _8
REMARK    6  A    between atoms: _8  and  _9
REMARK    7  A    between atoms: _18  and  _20
REMARK    8  A    between atoms: _20  and  _21
REMARK    9  A    between atoms: _20  and  _23
REMARK   10  A    between atoms: _23  and  _24
REMARK   11  A    between atoms: _27  and  _29
REMARK   12  A    between atoms: _29  and  _30
REMARK   13  A    between atoms: _29  and  _32
REMARK   14  A    between atoms: _32  and  _33
REMARK   15  A    between atoms: _36  and  _38
REMARK   16  A    between atoms: _38  and  _39
REMARK   17  A    between atoms: _38  and  _41
REMARK   18  A    between atoms: _41  and  _42
REMARK   19  A    between atoms: _45  and  _47
REMARK   20  A    between atoms: _47  and  _48
REMARK   21  A    between atoms: _47  and  _50
REMARK   22  A    between atoms: _50  and  _51
REMARK   23  A    between atoms: _54  and  _56
REMARK   24  A    between atoms: _56  and  _57
REMARK   25  A    between atoms: _56  and  _59
REMARK   26  A    between atoms: _59  and  _60
REMARK   27  A    between atoms: _63  and  _65
REMARK   28  A    between atoms: _65  and  _66
REMARK   29  A    between atoms: _68  and  _70
REMARK   30  A    between atoms: _70  and  _71
REMARK   31  A    between atoms: _74  and  _76
REMARK   32  A    between atoms: _76  and  _77
REMARK   33  A    between atoms: _76  and  _79
REMARK   34  A    between atoms: _79  and  _80
REMARK   35  A    between atoms: _83  and  _85
REMARK   36  A    between atoms: _85  and  _86
REMARK   37  A    between atoms: _85  and  _88
REMARK   38  A    between atoms: _88  and  _89
REMARK   39  A    between atoms: _92  and  _94
REMARK   40  A    between atoms: _94  and  _95
REMARK   41  A    between atoms: _94  and  _97
REMARK   42  A    between atoms: _97  and  _98
REMARK   43  A    between atoms: _101  and  _103
REMARK   44  A    between atoms: _103  and  _104
REMARK   45  A    between atoms: _103  and  _106
REMARK   46  A    between atoms: _109  and  _111
REMARK   47  A    between atoms: _111  and  _112
REMARK   48  A    between atoms: _111  and  _114
REMARK   49  A    between atoms: _114  and  _115
REMARK   50  A    between atoms: _115  and  _116
REMARK   51  A    between atoms: _116  and  _117
REMARK   52  A    between atoms: _117  and  _118
REMARK   53  A    between atoms: _122  and  _124
REMARK   54  A    between atoms: _124  and  _125
REMARK   55  A    between atoms: _124  and  _127
REMARK   56  A    between atoms: _127  and  _128
REMARK   57  A    between atoms: _128  and  _129
REMARK   58  A    between atoms: _131  and  _133
REMARK   59  A    between atoms: _133  and  _134
REMARK   60  A    between atoms: _133  and  _136
REMARK   61  A    between atoms: _136  and  _137
REMARK   62  A    between atoms: _140  and  _142
REMARK   63  A    between atoms: _142  and  _143
REMARK   64  A    between atoms: _145  and  _147
REMARK   65  A    between atoms: _147  and  _148
REMARK   66  A    between atoms: _150  and  _152
REMARK   67  A    between atoms: _152  and  _153
REMARK   68  A    between atoms: _152  and  _155
REMARK   69  A    between atoms: _155  and  _156
REMARK   70  A    between atoms: _159  and  _161
REMARK   71  A    between atoms: _161  and  _162
REMARK   72  A    between atoms: _164  and  _166
REMARK   73  A    between atoms: _166  and  _167
REMARK   74  A    between atoms: _169  and  _171
REMARK   75  A    between atoms: _171  and  _172
REMARK   76  A    between atoms: _171  and  _174
REMARK   77  A    between atoms: _174  and  _175
REMARK   78  A    between atoms: _181  and  _183
REMARK   79  A    between atoms: _183  and  _184
REMARK   80  A    between atoms: _183  and  _186
REMARK   81  A    between atoms: _186  and  _187
REMARK   82  A    between atoms: _190  and  _192
REMARK   83  A    between atoms: _192  and  _193
REMARK   84  A    between atoms: _192  and  _195
REMARK   85  A    between atoms: _195  and  _196
REMARK   86  A    between atoms: _199  and  _201
REMARK   87  A    between atoms: _201  and  _202
REMARK   88  A    between atoms: _201  and  _204
REMARK   89  A    between atoms: _204  and  _205
REMARK   90  A    between atoms: _209  and  _210
REMARK   91  A    between atoms: _215  and  _217
REMARK   92  A    between atoms: _217  and  _218
REMARK   93  A    between atoms: _217  and  _220
REMARK   94  A    between atoms: _223  and  _225
REMARK   95  A    between atoms: _225  and  _226
REMARK   96  A    between atoms: _225  and  _228
REMARK   97  A    between atoms: _228  and  _229
REMARK   98  A    between atoms: _234  and  _236
REMARK   99  A    between atoms: _236  and  _237
REMARK  100  A    between atoms: _236  and  _239
REMARK  101  A    between atoms: _239  and  _240
REMARK  102  A    between atoms: _243  and  _245
REMARK  103  A    between atoms: _245  and  _246
REMARK  104  A    between atoms: _245  and  _248
REMARK  105  A    between atoms: _248  and  _249
REMARK  106  A    between atoms: _252  and  _254
REMARK  107  A    between atoms: _254  and  _255
REMARK  108  A    between atoms: _257  and  _259
REMARK  109  A    between atoms: _259  and  _260
REMARK  110  A    between atoms: _259  and  _262
REMARK  111  A    between atoms: _262  and  _263
REMARK  112  A    between atoms: _263  and  _264
REMARK  113  A    between atoms: _264  and  _265
REMARK  114  A    between atoms: _274  and  _276
REMARK  115  A    between atoms: _276  and  _277
REMARK  116  A    between atoms: _276  and  _279
REMARK  117  A    between atoms: _279  and  _280
REMARK  118  A    between atoms: _283  and  _285
REMARK  119  A    between atoms: _285  and  _286
REMARK  120  A    between atoms: _285  and  _288
REMARK  121  A    between atoms: _288  and  _289
REMARK  122  A    between atoms: _289  and  _290
REMARK  123  A    between atoms: _290  and  _291
REMARK  124  A    between atoms: _300  and  _302
REMARK  125  A    between atoms: _302  and  _303
REMARK  126  A    between atoms: _302  and  _305
REMARK  127  A    between atoms: _305  and  _306
REMARK  128  A    between atoms: _309  and  _311
REMARK  129  A    between atoms: _311  and  _312
REMARK  130  A    between atoms: _311  and  _314
REMARK  131  A    between atoms: _314  and  _315
REMARK  132  A    between atoms: _318  and  _320
REMARK  133  A    between atoms: _320  and  _321
REMARK  134  A    between atoms: _320  and  _323
REMARK  135  A    between atoms: _323  and  _324
REMARK  136  A    between atoms: _327  and  _329
REMARK  137  A    between atoms: _329  and  _330
REMARK  138  A    between atoms: _329  and  _332
REMARK  139  A    between atoms: _332  and  _333
REMARK  140  A    between atoms: _336  and  _338
REMARK  141  A    between atoms: _338  and  _339
REMARK  142  A    between atoms: _341  and  _343
REMARK  143  A    between atoms: _343  and  _344
REMARK  144  A    between atoms: _347  and  _349
REMARK  145  A    between atoms: _349  and  _350
REMARK  146  A    between atoms: _349  and  _352
REMARK  147  A    between atoms: _352  and  _353
REMARK  148  A    between atoms: _356  and  _358
REMARK  149  A    between atoms: _358  and  _359
REMARK  150  A    between atoms: _358  and  _361
REMARK  151  A    between atoms: _361  and  _362
REMARK  152  A    between atoms: _365  and  _367
REMARK  153  A    between atoms: _367  and  _368
REMARK  154  A    between atoms: _367  and  _370
REMARK  155  A    between atoms: _370  and  _371
REMARK  156  A    between atoms: _374  and  _376
REMARK  157  A    between atoms: _376  and  _377
REMARK  158  A    between atoms: _376  and  _379
REMARK  159  A    between atoms: _382  and  _384
REMARK  160  A    between atoms: _384  and  _385
REMARK  161  A    between atoms: _384  and  _387
REMARK  162  A    between atoms: _387  and  _388
REMARK  163  A    between atoms: _388  and  _389
REMARK  164  A    between atoms: _389  and  _390
REMARK  165  A    between atoms: _390  and  _391
REMARK  166  A    between atoms: _395  and  _397
REMARK  167  A    between atoms: _397  and  _398
REMARK  168  A    between atoms: _397  and  _400
REMARK  169  A    between atoms: _400  and  _401
REMARK  170  A    between atoms: _401  and  _402
REMARK  171  A    between atoms: _404  and  _406
REMARK  172  A    between atoms: _406  and  _407
REMARK  173  A    between atoms: _406  and  _409
REMARK  174  A    between atoms: _409  and  _410
REMARK  175  A    between atoms: _413  and  _415
REMARK  176  A    between atoms: _415  and  _416
REMARK  177  A    between atoms: _418  and  _420
REMARK  178  A    between atoms: _420  and  _421
REMARK  179  A    between atoms: _423  and  _425
REMARK  180  A    between atoms: _425  and  _426
REMARK  181  A    between atoms: _425  and  _428
REMARK  182  A    between atoms: _428  and  _429
REMARK  183  A    between atoms: _432  and  _434
REMARK  184  A    between atoms: _434  and  _435
REMARK  185  A    between atoms: _437  and  _439
REMARK  186  A    between atoms: _439  and  _440
REMARK  187  A    between atoms: _442  and  _444
REMARK  188  A    between atoms: _444  and  _445
REMARK  189  A    between atoms: _444  and  _447
REMARK  190  A    between atoms: _447  and  _448
REMARK  191  A    between atoms: _454  and  _456
REMARK  192  A    between atoms: _456  and  _457
REMARK  193  A    between atoms: _456  and  _459
REMARK  194  A    between atoms: _459  and  _460
REMARK  195  A    between atoms: _463  and  _465
REMARK  196  A    between atoms: _465  and  _466
REMARK  197  A    between atoms: _465  and  _468
REMARK  198  A    between atoms: _471  and  _473
REMARK  199  A    between atoms: _473  and  _474
REMARK  200  A    between atoms: _473  and  _476
REMARK  201  A    between atoms: _476  and  _477
REMARK  202  A    between atoms: _481  and  _482
REMARK  203  A    between atoms: _487  and  _489
REMARK  204  A    between atoms: _489  and  _490
REMARK  205  A    between atoms: _489  and  _492
REMARK  206  A    between atoms: _492  and  _493
REMARK  207  A    between atoms: _497  and  _498
REMARK  208  A    between atoms: _503  and  _505
REMARK  209  A    between atoms: _505  and  _506
REMARK  210  A    between atoms: _505  and  _508
REMARK  211  A    between atoms: _511  and  _513
REMARK  212  A    between atoms: _513  and  _514
REMARK  213  A    between atoms: _513  and  _516
REMARK  214  A    between atoms: _516  and  _517
REMARK  215  A    between atoms: _522  and  _524
REMARK  216  A    between atoms: _524  and  _525
REMARK  217  A    between atoms: _524  and  _527
REMARK  218  A    between atoms: _527  and  _528
REMARK  219  A    between atoms: _531  and  _533
REMARK  220  A    between atoms: _533  and  _534
REMARK  221  A    between atoms: _533  and  _536
REMARK  222  A    between atoms: _536  and  _537
REMARK  223  A    between atoms: _540  and  _542
REMARK  224  A    between atoms: _542  and  _543
REMARK  225  A    between atoms: _545  and  _547
REMARK  226  A    between atoms: _547  and  _548
REMARK  227  A    between atoms: _547  and  _550
REMARK  228  A    between atoms: _550  and  _551
REMARK  229  A    between atoms: _551  and  _552
REMARK  230  A    between atoms: _552  and  _553
REMARK  231  A    between atoms: _562  and  _564
REMARK  232  A    between atoms: _564  and  _565
REMARK  233  A    between atoms: _564  and  _567
REMARK  234  A    between atoms: _567  and  _568
REMARK                            x       y       z     vdW  Elec       q    Type
REMARK                         _______ _______ _______ _____ _____    ______ ____
ROOT
ATOM      1  O   HOH     1       8.473  15.115  18.116  0.00  0.00    +0.000 OA
ENDROOT
TORSDOF 0
REMARK  Name = ../refined-set-2016/3vfb/3vfb_pocket.pdb
REMARK  234 active torsions:
REMARK  status: ('A' for Active; 'I' for Inactive)
REMARK    1  A    between atoms: _1  and  _3
REMARK    2  A    between atoms: _3  and  _4
REMARK    3  A    between atoms: _3  and  _6
REMARK    4  A    between atoms: _6  and  _7
REMARK    5  A    between atoms: _7  and  _8
REMARK    6  A    between atoms: _8  and  _9
REMARK    7  A    between atoms: _18  and  _20
REMARK    8  A    between atoms: _20  and  _21
REMARK    9  A    between atoms: _20  and  _23
REMARK   10  A    between atoms: _23  and  _24
REMARK   11  A    between atoms: _27  and  _29
REMARK   12  A    between atoms: _29  and  _30
REMARK   13  A    between atoms: _29  and  _32
REMARK   14  A    between atoms: _32  and  _33
REMARK   15  A    between atoms: _36  and  _38
REMARK   16  A    between atoms: _38  and  _39
REMARK   17  A    between atoms: _38  and  _41
REMARK   18  A    between atoms: _41  and  _42
REMARK   19  A    between atoms: _45  and  _47
REMARK   20  A    between atoms: _47  and  _48
REMARK   21  A    between atoms: _47  and  _50
REMARK   22  A    between atoms: _50  and  _51
REMARK   23  A    between atoms: _54  and  _56
REMARK   24  A    between atoms: _56  and  _57
REMARK   25  A    between atoms: _56  and  _59
REMARK   26  A    between atoms: _59  and  _60
REMARK   27  A    between atoms: _63  and  _65
REMARK   28  A    between atoms: _65  and  _66
REMARK   29  A    between atoms: _68  and  _70
REMARK   30  A    between atoms: _70  and  _71
REMARK   31  A    between atoms: _74  and  _76
REMARK   32  A    between atoms: _76  and  _77
REMARK   33  A    between atoms: _76  and  _79
REMARK   34  A    between atoms: _79  and  _80
REMARK   35  A    between atoms: _83  and  _85
REMARK   36  A    between atoms: _85  and  _86
REMARK   37  A    between atoms: _85  and  _88
REMARK   38  A    between atoms: _88  and  _89
REMARK   39  A    between atoms: _92  and  _94
REMARK   40  A    between atoms: _94  and  _95
REMARK   41  A    between atoms: _94  and  _97
REMARK   42  A    between atoms: _97  and  _98
REMARK   43  A    between atoms: _101  and  _103
REMARK   44  A    between atoms: _103  and  _104
REMARK   45  A    between atoms: _103  and  _106
REMARK   46  A    between atoms: _109  and  _111
REMARK   47  A    between atoms: _111  and  _112
REMARK   48  A    between atoms: _111  and  _114
REMARK   49  A    between atoms: _114  and  _115
REMARK   50  A    between atoms: _115  and  _116
REMARK   51  A    between atoms: _116  and  _117
REMARK   52  A    between atoms: _117  and  _118
REMARK   53  A    between atoms: _122  and  _124
REMARK   54  A    between atoms: _124  and  _125
REMARK   55  A    between atoms: _124  and  _127
REMARK   56  A    between atoms: _127  and  _128
REMARK   57  A    between atoms: _128  and  _129
REMARK   58  A    between atoms: _131  and  _133
REMARK   59  A    between atoms: _133  and  _134
REMARK   60  A    between atoms: _133  and  _136
REMARK   61  A    between atoms: _136  and  _137
REMARK   62  A    between atoms: _140  and  _142
REMARK   63  A    between atoms: _142  and  _143
REMARK   64  A    between atoms: _145  and  _147
REMARK   65  A    between atoms: _147  and  _148
REMARK   66  A    between atoms: _150  and  _152
REMARK   67  A    between atoms: _152  and  _153
REMARK   68  A    between atoms: _152  and  _155
REMARK   69  A    between atoms: _155  and  _156
REMARK   70  A    between atoms: _159  and  _161
REMARK   71  A    between atoms: _161  and  _162
REMARK   72  A    between atoms: _164  and  _166
REMARK   73  A    between atoms: _166  and  _167
REMARK   74  A    between atoms: _169  and  _171
REMARK   75  A    between atoms: _171  and  _172
REMARK   76  A    between atoms: _171  and  _174
REMARK   77  A    between atoms: _174  and  _175
REMARK   78  A    between atoms: _181  and  _183
REMARK   79  A    between atoms: _183  and  _184
REMARK   80  A    between atoms: _183  and  _186
REMARK   81  A    between atoms: _186  and  _187
REMARK   82  A    between atoms: _190  and  _192
REMARK   83  A    between atoms: _192  and  _193
REMARK   84  A    between atoms: _192  and  _195
REMARK   85  A    between atoms: _195  and  _196
REMARK   86  A    between atoms: _199  and  _201
REMARK   87  A    between atoms: _201  and  _202
REMARK   88  A    between atoms: _201  and  _204
REMARK   89  A    between atoms: _204  and  _205
REMARK   90  A    between atoms: _209  and  _210
REMARK   91  A    between atoms: _215  and  _217
REMARK   92  A    between atoms: _217  and  _218
REMARK   93  A    between atoms: _217  and  _220
REMARK   94  A    between atoms: _223  and  _225
REMARK   95  A    between atoms: _225  and  _226
REMARK   96  A    between atoms: _225  and  _228
REMARK   97  A    between atoms: _228  and  _229
REMARK   98  A    between atoms: _234  and  _236
REMARK   99  A    between atoms: _236  and  _237
REMARK  100  A    between atoms: _236  and  _239
REMARK  101  A    between atoms: _239  and  _240
REMARK  102  A    between atoms: _243  and  _245
REMARK  103  A    between atoms: _245  and  _246
REMARK  104  A    between atoms: _245  and  _248
REMARK  105  A    between atoms: _248  and  _249
REMARK  106  A    between atoms: _252  and  _254
REMARK  107  A    between atoms: _254  and  _255
REMARK  108  A    between atoms: _257  and  _259
REMARK  109  A    between atoms: _259  and  _260
REMARK  110  A    between atoms: _259  and  _262
REMARK  111  A    between atoms: _262  and  _263
REMARK  112  A    between atoms: _263  and  _264
REMARK  113  A    between atoms: _264  and  _265
REMARK  114  A    between atoms: _274  and  _276
REMARK  115  A    between atoms: _276  and  _277
REMARK  116  A    between atoms: _276  and  _279
REMARK  117  A    between atoms: _279  and  _280
REMARK  118  A    between atoms: _283  and  _285
REMARK  119  A    between atoms: _285  and  _286
REMARK  120  A    between atoms: _285  and  _288
REMARK  121  A    between atoms: _288  and  _289
REMARK  122  A    between atoms: _289  and  _290
REMARK  123  A    between atoms: _290  and  _291
REMARK  124  A    between atoms: _300  and  _302
REMARK  125  A    between atoms: _302  and  _303
REMARK  126  A    between atoms: _302  and  _305
REMARK  127  A    between atoms: _305  and  _306
REMARK  128  A    between atoms: _309  and  _311
REMARK  129  A    between atoms: _311  and  _312
REMARK  130  A    between atoms: _311  and  _314
REMARK  131  A    between atoms: _314  and  _315
REMARK  132  A    between atoms: _318  and  _320
REMARK  133  A    between atoms: _320  and  _321
REMARK  134  A    between atoms: _320  and  _323
REMARK  135  A    between atoms: _323  and  _324
REMARK  136  A    between atoms: _327  and  _329
REMARK  137  A    between atoms: _329  and  _330
REMARK  138  A    between atoms: _329  and  _332
REMARK  139  A    between atoms: _332  and  _333
REMARK  140  A    between atoms: _336  and  _338
REMARK  141  A    between atoms: _338  and  _339
REMARK  142  A    between atoms: _341  and  _343
REMARK  143  A    between atoms: _343  and  _344
REMARK  144  A    between atoms: _347  and  _349
REMARK  145  A    between atoms: _349  and  _350
REMARK  146  A    between atoms: _349  and  _352
REMARK  147  A    between atoms: _352  and  _353
REMARK  148  A    between atoms: _356  and  _358
REMARK  149  A    between atoms: _358  and  _359
REMARK  150  A    between atoms: _358  and  _361
REMARK  151  A    between atoms: _361  and  _362
REMARK  152  A    between atoms: _365  and  _367
REMARK  153  A    between atoms: _367  and  _368
REMARK  154  A    between atoms: _367  and  _370
REMARK  155  A    between atoms: _370  and  _371
REMARK  156  A    between atoms: _374  and  _376
REMARK  157  A    between atoms: _376  and  _377
REMARK  158  A    between atoms: _376  and  _379
REMARK  159  A    between atoms: _382  and  _384
REMARK  160  A    between atoms: _384  and  _385
REMARK  161  A    between atoms: _384  and  _387
REMARK  162  A    between atoms: _387  and  _388
REMARK  163  A    between atoms: _388  and  _389
REMARK  164  A    between atoms: _389  and  _390
REMARK  165  A    between atoms: _390  and  _391
REMARK  166  A    between atoms: _395  and  _397
REMARK  167  A    between atoms: _397  and  _398
REMARK  168  A    between atoms: _397  and  _400
REMARK  169  A    between atoms: _400  and  _401
REMARK  170  A    between atoms: _401  and  _402
REMARK  171  A    between atoms: _404  and  _406
REMARK  172  A    between atoms: _406  and  _407
REMARK  173  A    between atoms: _406  and  _409
REMARK  174  A    between atoms: _409  and  _410
REMARK  175  A    between atoms: _413  and  _415
REMARK  176  A    between atoms: _415  and  _416
REMARK  177  A    between atoms: _418  and  _420
REMARK  178  A    between atoms: _420  and  _421
REMARK  179  A    between atoms: _423  and  _425
REMARK  180  A    between atoms: _425  and  _426
REMARK  181  A    between atoms: _425  and  _428
REMARK  182  A    between atoms: _428  and  _429
REMARK  183  A    between atoms: _432  and  _434
REMARK  184  A    between atoms: _434  and  _435
REMARK  185  A    between atoms: _437  and  _439
REMARK  186  A    between atoms: _439  and  _440
REMARK  187  A    between atoms: _442  and  _444
REMARK  188  A    between atoms: _444  and  _445
REMARK  189  A    between atoms: _444  and  _447
REMARK  190  A    between atoms: _447  and  _448
REMARK  191  A    between atoms: _454  and  _456
REMARK  192  A    between atoms: _456  and  _457
REMARK  193  A    between atoms: _456  and  _459
REMARK  194  A    between atoms: _459  and  _460
REMARK  195  A    between atoms: _463  and  _465
REMARK  196  A    between atoms: _465  and  _466
REMARK  197  A    between atoms: _465  and  _468
REMARK  198  A    between atoms: _471  and  _473
REMARK  199  A    between atoms: _473  and  _474
REMARK  200  A    between atoms: _473  and  _476
REMARK  201  A    between atoms: _476  and  _477
REMARK  202  A    between atoms: _481  and  _482
REMARK  203  A    between atoms: _487  and  _489
REMARK  204  A    between atoms: _489  and  _490
REMARK  205  A    between atoms: _489  and  _492
REMARK  206  A    between atoms: _492  and  _493
REMARK  207  A    between atoms: _497  and  _498
REMARK  208  A    between atoms: _503  and  _505
REMARK  209  A    between atoms: _505  and  _506
REMARK  210  A    between atoms: _505  and  _508
REMARK  211  A    between atoms: _511  and  _513
REMARK  212  A    between atoms: _513  and  _514
REMARK  213  A    between atoms: _513  and  _516
REMARK  214  A    between atoms: _516  and  _517
REMARK  215  A    between atoms: _522  and  _524
REMARK  216  A    between atoms: _524  and  _525
REMARK  217  A    between atoms: _524  and  _527
REMARK  218  A    between atoms: _527  and  _528
REMARK  219  A    between atoms: _531  and  _533
REMARK  220  A    between atoms: _533  and  _534
REMARK  221  A    between atoms: _533  and  _536
REMARK  222  A    between atoms: _536  and  _537
REMARK  223  A    between atoms: _540  and  _542
REMARK  224  A    between atoms: _542  and  _543
REMARK  225  A    between atoms: _545  and  _547
REMARK  226  A    between atoms: _547  and  _548
REMARK  227  A    between atoms: _547  and  _550
REMARK  228  A    between atoms: _550  and  _551
REMARK  229  A    between atoms: _551  and  _552
REMARK  230  A    between atoms: _552  and  _553
REMARK  231  A    between atoms: _562  and  _564
REMARK  232  A    between atoms: _564  and  _565
REMARK  233  A    between atoms: _564  and  _567
REMARK  234  A    between atoms: _567  and  _568
REMARK                            x       y       z     vdW  Elec       q    Type
REMARK                         _______ _______ _______ _____ _____    ______ ____
ROOT
ATOM      1  O   HOH     1       3.937   9.319  11.955  0.00  0.00    +0.000 OA
ENDROOT
TORSDOF 0
REMARK  Name = ../refined-set-2016/3vfb/3vfb_pocket.pdb
REMARK  234 active torsions:
REMARK  status: ('A' for Active; 'I' for Inactive)
REMARK    1  A    between atoms: _1  and  _3
REMARK    2  A    between atoms: _3  and  _4
REMARK    3  A    between atoms: _3  and  _6
REMARK    4  A    between atoms: _6  and  _7
REMARK    5  A    between atoms: _7  and  _8
REMARK    6  A    between atoms: _8  and  _9
REMARK    7  A    between atoms: _18  and  _20
REMARK    8  A    between atoms: _20  and  _21
REMARK    9  A    between atoms: _20  and  _23
REMARK   10  A    between atoms: _23  and  _24
REMARK   11  A    between atoms: _27  and  _29
REMARK   12  A    between atoms: _29  and  _30
REMARK   13  A    between atoms: _29  and  _32
REMARK   14  A    between atoms: _32  and  _33
REMARK   15  A    between atoms: _36  and  _38
REMARK   16  A    between atoms: _38  and  _39
REMARK   17  A    between atoms: _38  and  _41
REMARK   18  A    between atoms: _41  and  _42
REMARK   19  A    between atoms: _45  and  _47
REMARK   20  A    between atoms: _47  and  _48
REMARK   21  A    between atoms: _47  and  _50
REMARK   22  A    between atoms: _50  and  _51
REMARK   23  A    between atoms: _54  and  _56
REMARK   24  A    between atoms: _56  and  _57
REMARK   25  A    between atoms: _56  and  _59
REMARK   26  A    between atoms: _59  and  _60
REMARK   27  A    between atoms: _63  and  _65
REMARK   28  A    between atoms: _65  and  _66
REMARK   29  A    between atoms: _68  and  _70
REMARK   30  A    between atoms: _70  and  _71
REMARK   31  A    between atoms: _74  and  _76
REMARK   32  A    between atoms: _76  and  _77
REMARK   33  A    between atoms: _76  and  _79
REMARK   34  A    between atoms: _79  and  _80
REMARK   35  A    between atoms: _83  and  _85
REMARK   36  A    between atoms: _85  and  _86
REMARK   37  A    between atoms: _85  and  _88
REMARK   38  A    between atoms: _88  and  _89
REMARK   39  A    between atoms: _92  and  _94
REMARK   40  A    between atoms: _94  and  _95
REMARK   41  A    between atoms: _94  and  _97
REMARK   42  A    between atoms: _97  and  _98
REMARK   43  A    between atoms: _101  and  _103
REMARK   44  A    between atoms: _103  and  _104
REMARK   45  A    between atoms: _103  and  _106
REMARK   46  A    between atoms: _109  and  _111
REMARK   47  A    between atoms: _111  and  _112
REMARK   48  A    between atoms: _111  and  _114
REMARK   49  A    between atoms: _114  and  _115
REMARK   50  A    between atoms: _115  and  _116
REMARK   51  A    between atoms: _116  and  _117
REMARK   52  A    between atoms: _117  and  _118
REMARK   53  A    between atoms: _122  and  _124
REMARK   54  A    between atoms: _124  and  _125
REMARK   55  A    between atoms: _124  and  _127
REMARK   56  A    between atoms: _127  and  _128
REMARK   57  A    between atoms: _128  and  _129
REMARK   58  A    between atoms: _131  and  _133
REMARK   59  A    between atoms: _133  and  _134
REMARK   60  A    between atoms: _133  and  _136
REMARK   61  A    between atoms: _136  and  _137
REMARK   62  A    between atoms: _140  and  _142
REMARK   63  A    between atoms: _142  and  _143
REMARK   64  A    between atoms: _145  and  _147
REMARK   65  A    between atoms: _147  and  _148
REMARK   66  A    between atoms: _150  and  _152
REMARK   67  A    between atoms: _152  and  _153
REMARK   68  A    between atoms: _152  and  _155
REMARK   69  A    between atoms: _155  and  _156
REMARK   70  A    between atoms: _159  and  _161
REMARK   71  A    between atoms: _161  and  _162
REMARK   72  A    between atoms: _164  and  _166
REMARK   73  A    between atoms: _166  and  _167
REMARK   74  A    between atoms: _169  and  _171
REMARK   75  A    between atoms: _171  and  _172
REMARK   76  A    between atoms: _171  and  _174
REMARK   77  A    between atoms: _174  and  _175
REMARK   78  A    between atoms: _181  and  _183
REMARK   79  A    between atoms: _183  and  _184
REMARK   80  A    between atoms: _183  and  _186
REMARK   81  A    between atoms: _186  and  _187
REMARK   82  A    between atoms: _190  and  _192
REMARK   83  A    between atoms: _192  and  _193
REMARK   84  A    between atoms: _192  and  _195
REMARK   85  A    between atoms: _195  and  _196
REMARK   86  A    between atoms: _199  and  _201
REMARK   87  A    between atoms: _201  and  _202
REMARK   88  A    between atoms: _201  and  _204
REMARK   89  A    between atoms: _204  and  _205
REMARK   90  A    between atoms: _209  and  _210
REMARK   91  A    between atoms: _215  and  _217
REMARK   92  A    between atoms: _217  and  _218
REMARK   93  A    between atoms: _217  and  _220
REMARK   94  A    between atoms: _223  and  _225
REMARK   95  A    between atoms: _225  and  _226
REMARK   96  A    between atoms: _225  and  _228
REMARK   97  A    between atoms: _228  and  _229
REMARK   98  A    between atoms: _234  and  _236
REMARK   99  A    between atoms: _236  and  _237
REMARK  100  A    between atoms: _236  and  _239
REMARK  101  A    between atoms: _239  and  _240
REMARK  102  A    between atoms: _243  and  _245
REMARK  103  A    between atoms: _245  and  _246
REMARK  104  A    between atoms: _245  and  _248
REMARK  105  A    between atoms: _248  and  _249
REMARK  106  A    between atoms: _252  and  _254
REMARK  107  A    between atoms: _254  and  _255
REMARK  108  A    between atoms: _257  and  _259
REMARK  109  A    between atoms: _259  and  _260
REMARK  110  A    between atoms: _259  and  _262
REMARK  111  A    between atoms: _262  and  _263
REMARK  112  A    between atoms: _263  and  _264
REMARK  113  A    between atoms: _264  and  _265
REMARK  114  A    between atoms: _274  and  _276
REMARK  115  A    between atoms: _276  and  _277
REMARK  116  A    between atoms: _276  and  _279
REMARK  117  A    between atoms: _279  and  _280
REMARK  118  A    between atoms: _283  and  _285
REMARK  119  A    between atoms: _285  and  _286
REMARK  120  A    between atoms: _285  and  _288
REMARK  121  A    between atoms: _288  and  _289
REMARK  122  A    between atoms: _289  and  _290
REMARK  123  A    between atoms: _290  and  _291
REMARK  124  A    between atoms: _300  and  _302
REMARK  125  A    between atoms: _302  and  _303
REMARK  126  A    between atoms: _302  and  _305
REMARK  127  A    between atoms: _305  and  _306
REMARK  128  A    between atoms: _309  and  _311
REMARK  129  A    between atoms: _311  and  _312
REMARK  130  A    between atoms: _311  and  _314
REMARK  131  A    between atoms: _314  and  _315
REMARK  132  A    between atoms: _318  and  _320
REMARK  133  A    between atoms: _320  and  _321
REMARK  134  A    between atoms: _320  and  _323
REMARK  135  A    between atoms: _323  and  _324
REMARK  136  A    between atoms: _327  and  _329
REMARK  137  A    between atoms: _329  and  _330
REMARK  138  A    between atoms: _329  and  _332
REMARK  139  A    between atoms: _332  and  _333
REMARK  140  A    between atoms: _336  and  _338
REMARK  141  A    between atoms: _338  and  _339
REMARK  142  A    between atoms: _341  and  _343
REMARK  143  A    between atoms: _343  and  _344
REMARK  144  A    between atoms: _347  and  _349
REMARK  145  A    between atoms: _349  and  _350
REMARK  146  A    between atoms: _349  and  _352
REMARK  147  A    between atoms: _352  and  _353
REMARK  148  A    between atoms: _356  and  _358
REMARK  149  A    between atoms: _358  and  _359
REMARK  150  A    between atoms: _358  and  _361
REMARK  151  A    between atoms: _361  and  _362
REMARK  152  A    between atoms: _365  and  _367
REMARK  153  A    between atoms: _367  and  _368
REMARK  154  A    between atoms: _367  and  _370
REMARK  155  A    between atoms: _370  and  _371
REMARK  156  A    between atoms: _374  and  _376
REMARK  157  A    between atoms: _376  and  _377
REMARK  158  A    between atoms: _376  and  _379
REMARK  159  A    between atoms: _382  and  _384
REMARK  160  A    between atoms: _384  and  _385
REMARK  161  A    between atoms: _384  and  _387
REMARK  162  A    between atoms: _387  and  _388
REMARK  163  A    between atoms: _388  and  _389
REMARK  164  A    between atoms: _389  and  _390
REMARK  165  A    between atoms: _390  and  _391
REMARK  166  A    between atoms: _395  and  _397
REMARK  167  A    between atoms: _397  and  _398
REMARK  168  A    between atoms: _397  and  _400
REMARK  169  A    between atoms: _400  and  _401
REMARK  170  A    between atoms: _401  and  _402
REMARK  171  A    between atoms: _404  and  _406
REMARK  172  A    between atoms: _406  and  _407
REMARK  173  A    between atoms: _406  and  _409
REMARK  174  A    between atoms: _409  and  _410
REMARK  175  A    between atoms: _413  and  _415
REMARK  176  A    between atoms: _415  and  _416
REMARK  177  A    between atoms: _418  and  _420
REMARK  178  A    between atoms: _420  and  _421
REMARK  179  A    between atoms: _423  and  _425
REMARK  180  A    between atoms: _425  and  _426
REMARK  181  A    between atoms: _425  and  _428
REMARK  182  A    between atoms: _428  and  _429
REMARK  183  A    between atoms: _432  and  _434
REMARK  184  A    between atoms: _434  and  _435
REMARK  185  A    between atoms: _437  and  _439
REMARK  186  A    between atoms: _439  and  _440
REMARK  187  A    between atoms: _442  and  _444
REMARK  188  A    between atoms: _444  and  _445
REMARK  189  A    between atoms: _444  and  _447
REMARK  190  A    between atoms: _447  and  _448
REMARK  191  A    between atoms: _454  and  _456
REMARK  192  A    between atoms: _456  and  _457
REMARK  193  A    between atoms: _456  and  _459
REMARK  194  A    between atoms: _459  and  _460
REMARK  195  A    between atoms: _463  and  _465
REMARK  196  A    between atoms: _465  and  _466
REMARK  197  A    between atoms: _465  and  _468
REMARK  198  A    between atoms: _471  and  _473
REMARK  199  A    between atoms: _473  and  _474
REMARK  200  A    between atoms: _473  and  _476
REMARK  201  A    between atoms: _476  and  _477
REMARK  202  A    between atoms: _481  and  _482
REMARK  203  A    between atoms: _487  and  _489
REMARK  204  A    between atoms: _489  and  _490
REMARK  205  A    between atoms: _489  and  _492
REMARK  206  A    between atoms: _492  and  _493
REMARK  207  A    between atoms: _497  and  _498
REMARK  208  A    between atoms: _503  and  _505
REMARK  209  A    between atoms: _505  and  _506
REMARK  210  A    between atoms: _505  and  _508
REMARK  211  A    between atoms: _511  and  _513
REMARK  212  A    between atoms: _513  and  _514
REMARK  213  A    between atoms: _513  and  _516
REMARK  214  A    between atoms: _516  and  _517
REMARK  215  A    between atoms: _522  and  _524
REMARK  216  A    between atoms: _524  and  _525
REMARK  217  A    between atoms: _524  and  _527
REMARK  218  A    between atoms: _527  and  _528
REMARK  219  A    between atoms: _531  and  _533
REMARK  220  A    between atoms: _533  and  _534
REMARK  221  A    between atoms: _533  and  _536
REMARK  222  A    between atoms: _536  and  _537
REMARK  223  A    between atoms: _540  and  _542
REMARK  224  A    between atoms: _542  and  _543
REMARK  225  A    between atoms: _545  and  _547
REMARK  226  A    between atoms: _547  and  _548
REMARK  227  A    between atoms: _547  and  _550
REMARK  228  A    between atoms: _550  and  _551
REMARK  229  A    between atoms: _551  and  _552
REMARK  230  A    between atoms: _552  and  _553
REMARK  231  A    between atoms: _562  and  _564
REMARK  232  A    between atoms: _564  and  _565
REMARK  233  A    between atoms: _564  and  _567
REMARK  234  A    between atoms: _567  and  _568
REMARK                            x       y       z     vdW  Elec       q    Type
REMARK                         _______ _______ _______ _____ _____    ______ ____
ROOT
ATOM      1  O   HOH     1      19.659  25.185  13.003  0.00  0.00    +0.000 OA
ENDROOT
TORSDOF 0
REMARK  Name = ../refined-set-2016/3vfb/3vfb_pocket.pdb
REMARK  234 active torsions:
REMARK  status: ('A' for Active; 'I' for Inactive)
REMARK    1  A    between atoms: _1  and  _3
REMARK    2  A    between atoms: _3  and  _4
REMARK    3  A    between atoms: _3  and  _6
REMARK    4  A    between atoms: _6  and  _7
REMARK    5  A    between atoms: _7  and  _8
REMARK    6  A    between atoms: _8  and  _9
REMARK    7  A    between atoms: _18  and  _20
REMARK    8  A    between atoms: _20  and  _21
REMARK    9  A    between atoms: _20  and  _23
REMARK   10  A    between atoms: _23  and  _24
REMARK   11  A    between atoms: _27  and  _29
REMARK   12  A    between atoms: _29  and  _30
REMARK   13  A    between atoms: _29  and  _32
REMARK   14  A    between atoms: _32  and  _33
REMARK   15  A    between atoms: _36  and  _38
REMARK   16  A    between atoms: _38  and  _39
REMARK   17  A    between atoms: _38  and  _41
REMARK   18  A    between atoms: _41  and  _42
REMARK   19  A    between atoms: _45  and  _47
REMARK   20  A    between atoms: _47  and  _48
REMARK   21  A    between atoms: _47  and  _50
REMARK   22  A    between atoms: _50  and  _51
REMARK   23  A    between atoms: _54  and  _56
REMARK   24  A    between atoms: _56  and  _57
REMARK   25  A    between atoms: _56  and  _59
REMARK   26  A    between atoms: _59  and  _60
REMARK   27  A    between atoms: _63  and  _65
REMARK   28  A    between atoms: _65  and  _66
REMARK   29  A    between atoms: _68  and  _70
REMARK   30  A    between atoms: _70  and  _71
REMARK   31  A    between atoms: _74  and  _76
REMARK   32  A    between atoms: _76  and  _77
REMARK   33  A    between atoms: _76  and  _79
REMARK   34  A    between atoms: _79  and  _80
REMARK   35  A    between atoms: _83  and  _85
REMARK   36  A    between atoms: _85  and  _86
REMARK   37  A    between atoms: _85  and  _88
REMARK   38  A    between atoms: _88  and  _89
REMARK   39  A    between atoms: _92  and  _94
REMARK   40  A    between atoms: _94  and  _95
REMARK   41  A    between atoms: _94  and  _97
REMARK   42  A    between atoms: _97  and  _98
REMARK   43  A    between atoms: _101  and  _103
REMARK   44  A    between atoms: _103  and  _104
REMARK   45  A    between atoms: _103  and  _106
REMARK   46  A    between atoms: _109  and  _111
REMARK   47  A    between atoms: _111  and  _112
REMARK   48  A    between atoms: _111  and  _114
REMARK   49  A    between atoms: _114  and  _115
REMARK   50  A    between atoms: _115  and  _116
REMARK   51  A    between atoms: _116  and  _117
REMARK   52  A    between atoms: _117  and  _118
REMARK   53  A    between atoms: _122  and  _124
REMARK   54  A    between atoms: _124  and  _125
REMARK   55  A    between atoms: _124  and  _127
REMARK   56  A    between atoms: _127  and  _128
REMARK   57  A    between atoms: _128  and  _129
REMARK   58  A    between atoms: _131  and  _133
REMARK   59  A    between atoms: _133  and  _134
REMARK   60  A    between atoms: _133  and  _136
REMARK   61  A    between atoms: _136  and  _137
REMARK   62  A    between atoms: _140  and  _142
REMARK   63  A    between atoms: _142  and  _143
REMARK   64  A    between atoms: _145  and  _147
REMARK   65  A    between atoms: _147  and  _148
REMARK   66  A    between atoms: _150  and  _152
REMARK   67  A    between atoms: _152  and  _153
REMARK   68  A    between atoms: _152  and  _155
REMARK   69  A    between atoms: _155  and  _156
REMARK   70  A    between atoms: _159  and  _161
REMARK   71  A    between atoms: _161  and  _162
REMARK   72  A    between atoms: _164  and  _166
REMARK   73  A    between atoms: _166  and  _167
REMARK   74  A    between atoms: _169  and  _171
REMARK   75  A    between atoms: _171  and  _172
REMARK   76  A    between atoms: _171  and  _174
REMARK   77  A    between atoms: _174  and  _175
REMARK   78  A    between atoms: _181  and  _183
REMARK   79  A    between atoms: _183  and  _184
REMARK   80  A    between atoms: _183  and  _186
REMARK   81  A    between atoms: _186  and  _187
REMARK   82  A    between atoms: _190  and  _192
REMARK   83  A    between atoms: _192  and  _193
REMARK   84  A    between atoms: _192  and  _195
REMARK   85  A    between atoms: _195  and  _196
REMARK   86  A    between atoms: _199  and  _201
REMARK   87  A    between atoms: _201  and  _202
REMARK   88  A    between atoms: _201  and  _204
REMARK   89  A    between atoms: _204  and  _205
REMARK   90  A    between atoms: _209  and  _210
REMARK   91  A    between atoms: _215  and  _217
REMARK   92  A    between atoms: _217  and  _218
REMARK   93  A    between atoms: _217  and  _220
REMARK   94  A    between atoms: _223  and  _225
REMARK   95  A    between atoms: _225  and  _226
REMARK   96  A    between atoms: _225  and  _228
REMARK   97  A    between atoms: _228  and  _229
REMARK   98  A    between atoms: _234  and  _236
REMARK   99  A    between atoms: _236  and  _237
REMARK  100  A    between atoms: _236  and  _239
REMARK  101  A    between atoms: _239  and  _240
REMARK  102  A    between atoms: _243  and  _245
REMARK  103  A    between atoms: _245  and  _246
REMARK  104  A    between atoms: _245  and  _248
REMARK  105  A    between atoms: _248  and  _249
REMARK  106  A    between atoms: _252  and  _254
REMARK  107  A    between atoms: _254  and  _255
REMARK  108  A    between atoms: _257  and  _259
REMARK  109  A    between atoms: _259  and  _260
REMARK  110  A    between atoms: _259  and  _262
REMARK  111  A    between atoms: _262  and  _263
REMARK  112  A    between atoms: _263  and  _264
REMARK  113  A    between atoms: _264  and  _265
REMARK  114  A    between atoms: _274  and  _276
REMARK  115  A    between atoms: _276  and  _277
REMARK  116  A    between atoms: _276  and  _279
REMARK  117  A    between atoms: _279  and  _280
REMARK  118  A    between atoms: _283  and  _285
REMARK  119  A    between atoms: _285  and  _286
REMARK  120  A    between atoms: _285  and  _288
REMARK  121  A    between atoms: _288  and  _289
REMARK  122  A    between atoms: _289  and  _290
REMARK  123  A    between atoms: _290  and  _291
REMARK  124  A    between atoms: _300  and  _302
REMARK  125  A    between atoms: _302  and  _303
REMARK  126  A    between atoms: _302  and  _305
REMARK  127  A    between atoms: _305  and  _306
REMARK  128  A    between atoms: _309  and  _311
REMARK  129  A    between atoms: _311  and  _312
REMARK  130  A    between atoms: _311  and  _314
REMARK  131  A    between atoms: _314  and  _315
REMARK  132  A    between atoms: _318  and  _320
REMARK  133  A    between atoms: _320  and  _321
REMARK  134  A    between atoms: _320  and  _323
REMARK  135  A    between atoms: _323  and  _324
REMARK  136  A    between atoms: _327  and  _329
REMARK  137  A    between atoms: _329  and  _330
REMARK  138  A    between atoms: _329  and  _332
REMARK  139  A    between atoms: _332  and  _333
REMARK  140  A    between atoms: _336  and  _338
REMARK  141  A    between atoms: _338  and  _339
REMARK  142  A    between atoms: _341  and  _343
REMARK  143  A    between atoms: _343  and  _344
REMARK  144  A    between atoms: _347  and  _349
REMARK  145  A    between atoms: _349  and  _350
REMARK  146  A    between atoms: _349  and  _352
REMARK  147  A    between atoms: _352  and  _353
REMARK  148  A    between atoms: _356  and  _358
REMARK  149  A    between atoms: _358  and  _359
REMARK  150  A    between atoms: _358  and  _361
REMARK  151  A    between atoms: _361  and  _362
REMARK  152  A    between atoms: _365  and  _367
REMARK  153  A    between atoms: _367  and  _368
REMARK  154  A    between atoms: _367  and  _370
REMARK  155  A    between atoms: _370  and  _371
REMARK  156  A    between atoms: _374  and  _376
REMARK  157  A    between atoms: _376  and  _377
REMARK  158  A    between atoms: _376  and  _379
REMARK  159  A    between atoms: _382  and  _384
REMARK  160  A    between atoms: _384  and  _385
REMARK  161  A    between atoms: _384  and  _387
REMARK  162  A    between atoms: _387  and  _388
REMARK  163  A    between atoms: _388  and  _389
REMARK  164  A    between atoms: _389  and  _390
REMARK  165  A    between atoms: _390  and  _391
REMARK  166  A    between atoms: _395  and  _397
REMARK  167  A    between atoms: _397  and  _398
REMARK  168  A    between atoms: _397  and  _400
REMARK  169  A    between atoms: _400  and  _401
REMARK  170  A    between atoms: _401  and  _402
REMARK  171  A    between atoms: _404  and  _406
REMARK  172  A    between atoms: _406  and  _407
REMARK  173  A    between atoms: _406  and  _409
REMARK  174  A    between atoms: _409  and  _410
REMARK  175  A    between atoms: _413  and  _415
REMARK  176  A    between atoms: _415  and  _416
REMARK  177  A    between atoms: _418  and  _420
REMARK  178  A    between atoms: _420  and  _421
REMARK  179  A    between atoms: _423  and  _425
REMARK  180  A    between atoms: _425  and  _426
REMARK  181  A    between atoms: _425  and  _428
REMARK  182  A    between atoms: _428  and  _429
REMARK  183  A    between atoms: _432  and  _434
REMARK  184  A    between atoms: _434  and  _435
REMARK  185  A    between atoms: _437  and  _439
REMARK  186  A    between atoms: _439  and  _440
REMARK  187  A    between atoms: _442  and  _444
REMARK  188  A    between atoms: _444  and  _445
REMARK  189  A    between atoms: _444  and  _447
REMARK  190  A    between atoms: _447  and  _448
REMARK  191  A    between atoms: _454  and  _456
REMARK  192  A    between atoms: _456  and  _457
REMARK  193  A    between atoms: _456  and  _459
REMARK  194  A    between atoms: _459  and  _460
REMARK  195  A    between atoms: _463  and  _465
REMARK  196  A    between atoms: _465  and  _466
REMARK  197  A    between atoms: _465  and  _468
REMARK  198  A    between atoms: _471  and  _473
REMARK  199  A    between atoms: _473  and  _474
REMARK  200  A    between atoms: _473  and  _476
REMARK  201  A    between atoms: _476  and  _477
REMARK  202  A    between atoms: _481  and  _482
REMARK  203  A    between atoms: _487  and  _489
REMARK  204  A    between atoms: _489  and  _490
REMARK  205  A    between atoms: _489  and  _492
REMARK  206  A    between atoms: _492  and  _493
REMARK  207  A    between atoms: _497  and  _498
REMARK  208  A    between atoms: _503  and  _505
REMARK  209  A    between atoms: _505  and  _506
REMARK  210  A    between atoms: _505  and  _508
REMARK  211  A    between atoms: _511  and  _513
REMARK  212  A    between atoms: _513  and  _514
REMARK  213  A    between atoms: _513  and  _516
REMARK  214  A    between atoms: _516  and  _517
REMARK  215  A    between atoms: _522  and  _524
REMARK  216  A    between atoms: _524  and  _525
REMARK  217  A    between atoms: _524  and  _527
REMARK  218  A    between atoms: _527  and  _528
REMARK  219  A    between atoms: _531  and  _533
REMARK  220  A    between atoms: _533  and  _534
REMARK  221  A    between atoms: _533  and  _536
REMARK  222  A    between atoms: _536  and  _537
REMARK  223  A    between atoms: _540  and  _542
REMARK  224  A    between atoms: _542  and  _543
REMARK  225  A    between atoms: _545  and  _547
REMARK  226  A    between atoms: _547  and  _548
REMARK  227  A    between atoms: _547  and  _550
REMARK  228  A    between atoms: _550  and  _551
REMARK  229  A    between atoms: _551  and  _552
REMARK  230  A    between atoms: _552  and  _553
REMARK  231  A    between atoms: _562  and  _564
REMARK  232  A    between atoms: _564  and  _565
REMARK  233  A    between atoms: _564  and  _567
REMARK  234  A    between atoms: _567  and  _568
REMARK                            x       y       z     vdW  Elec       q    Type
REMARK                         _______ _______ _______ _____ _____    ______ ____
ROOT
ATOM      1  O   HOH     1       8.263   7.389  17.385  0.00  0.00    +0.000 OA
ENDROOT
TORSDOF 0
REMARK  Name = ../refined-set-2016/3vfb/3vfb_pocket.pdb
REMARK  234 active torsions:
REMARK  status: ('A' for Active; 'I' for Inactive)
REMARK    1  A    between atoms: _1  and  _3
REMARK    2  A    between atoms: _3  and  _4
REMARK    3  A    between atoms: _3  and  _6
REMARK    4  A    between atoms: _6  and  _7
REMARK    5  A    between atoms: _7  and  _8
REMARK    6  A    between atoms: _8  and  _9
REMARK    7  A    between atoms: _18  and  _20
REMARK    8  A    between atoms: _20  and  _21
REMARK    9  A    between atoms: _20  and  _23
REMARK   10  A    between atoms: _23  and  _24
REMARK   11  A    between atoms: _27  and  _29
REMARK   12  A    between atoms: _29  and  _30
REMARK   13  A    between atoms: _29  and  _32
REMARK   14  A    between atoms: _32  and  _33
REMARK   15  A    between atoms: _36  and  _38
REMARK   16  A    between atoms: _38  and  _39
REMARK   17  A    between atoms: _38  and  _41
REMARK   18  A    between atoms: _41  and  _42
REMARK   19  A    between atoms: _45  and  _47
REMARK   20  A    between atoms: _47  and  _48
REMARK   21  A    between atoms: _47  and  _50
REMARK   22  A    between atoms: _50  and  _51
REMARK   23  A    between atoms: _54  and  _56
REMARK   24  A    between atoms: _56  and  _57
REMARK   25  A    between atoms: _56  and  _59
REMARK   26  A    between atoms: _59  and  _60
REMARK   27  A    between atoms: _63  and  _65
REMARK   28  A    between atoms: _65  and  _66
REMARK   29  A    between atoms: _68  and  _70
REMARK   30  A    between atoms: _70  and  _71
REMARK   31  A    between atoms: _74  and  _76
REMARK   32  A    between atoms: _76  and  _77
REMARK   33  A    between atoms: _76  and  _79
REMARK   34  A    between atoms: _79  and  _80
REMARK   35  A    between atoms: _83  and  _85
REMARK   36  A    between atoms: _85  and  _86
REMARK   37  A    between atoms: _85  and  _88
REMARK   38  A    between atoms: _88  and  _89
REMARK   39  A    between atoms: _92  and  _94
REMARK   40  A    between atoms: _94  and  _95
REMARK   41  A    between atoms: _94  and  _97
REMARK   42  A    between atoms: _97  and  _98
REMARK   43  A    between atoms: _101  and  _103
REMARK   44  A    between atoms: _103  and  _104
REMARK   45  A    between atoms: _103  and  _106
REMARK   46  A    between atoms: _109  and  _111
REMARK   47  A    between atoms: _111  and  _112
REMARK   48  A    between atoms: _111  and  _114
REMARK   49  A    between atoms: _114  and  _115
REMARK   50  A    between atoms: _115  and  _116
REMARK   51  A    between atoms: _116  and  _117
REMARK   52  A    between atoms: _117  and  _118
REMARK   53  A    between atoms: _122  and  _124
REMARK   54  A    between atoms: _124  and  _125
REMARK   55  A    between atoms: _124  and  _127
REMARK   56  A    between atoms: _127  and  _128
REMARK   57  A    between atoms: _128  and  _129
REMARK   58  A    between atoms: _131  and  _133
REMARK   59  A    between atoms: _133  and  _134
REMARK   60  A    between atoms: _133  and  _136
REMARK   61  A    between atoms: _136  and  _137
REMARK   62  A    between atoms: _140  and  _142
REMARK   63  A    between atoms: _142  and  _143
REMARK   64  A    between atoms: _145  and  _147
REMARK   65  A    between atoms: _147  and  _148
REMARK   66  A    between atoms: _150  and  _152
REMARK   67  A    between atoms: _152  and  _153
REMARK   68  A    between atoms: _152  and  _155
REMARK   69  A    between atoms: _155  and  _156
REMARK   70  A    between atoms: _159  and  _161
REMARK   71  A    between atoms: _161  and  _162
REMARK   72  A    between atoms: _164  and  _166
REMARK   73  A    between atoms: _166  and  _167
REMARK   74  A    between atoms: _169  and  _171
REMARK   75  A    between atoms: _171  and  _172
REMARK   76  A    between atoms: _171  and  _174
REMARK   77  A    between atoms: _174  and  _175
REMARK   78  A    between atoms: _181  and  _183
REMARK   79  A    between atoms: _183  and  _184
REMARK   80  A    between atoms: _183  and  _186
REMARK   81  A    between atoms: _186  and  _187
REMARK   82  A    between atoms: _190  and  _192
REMARK   83  A    between atoms: _192  and  _193
REMARK   84  A    between atoms: _192  and  _195
REMARK   85  A    between atoms: _195  and  _196
REMARK   86  A    between atoms: _199  and  _201
REMARK   87  A    between atoms: _201  and  _202
REMARK   88  A    between atoms: _201  and  _204
REMARK   89  A    between atoms: _204  and  _205
REMARK   90  A    between atoms: _209  and  _210
REMARK   91  A    between atoms: _215  and  _217
REMARK   92  A    between atoms: _217  and  _218
REMARK   93  A    between atoms: _217  and  _220
REMARK   94  A    between atoms: _223  and  _225
REMARK   95  A    between atoms: _225  and  _226
REMARK   96  A    between atoms: _225  and  _228
REMARK   97  A    between atoms: _228  and  _229
REMARK   98  A    between atoms: _234  and  _236
REMARK   99  A    between atoms: _236  and  _237
REMARK  100  A    between atoms: _236  and  _239
REMARK  101  A    between atoms: _239  and  _240
REMARK  102  A    between atoms: _243  and  _245
REMARK  103  A    between atoms: _245  and  _246
REMARK  104  A    between atoms: _245  and  _248
REMARK  105  A    between atoms: _248  and  _249
REMARK  106  A    between atoms: _252  and  _254
REMARK  107  A    between atoms: _254  and  _255
REMARK  108  A    between atoms: _257  and  _259
REMARK  109  A    between atoms: _259  and  _260
REMARK  110  A    between atoms: _259  and  _262
REMARK  111  A    between atoms: _262  and  _263
REMARK  112  A    between atoms: _263  and  _264
REMARK  113  A    between atoms: _264  and  _265
REMARK  114  A    between atoms: _274  and  _276
REMARK  115  A    between atoms: _276  and  _277
REMARK  116  A    between atoms: _276  and  _279
REMARK  117  A    between atoms: _279  and  _280
REMARK  118  A    between atoms: _283  and  _285
REMARK  119  A    between atoms: _285  and  _286
REMARK  120  A    between atoms: _285  and  _288
REMARK  121  A    between atoms: _288  and  _289
REMARK  122  A    between atoms: _289  and  _290
REMARK  123  A    between atoms: _290  and  _291
REMARK  124  A    between atoms: _300  and  _302
REMARK  125  A    between atoms: _302  and  _303
REMARK  126  A    between atoms: _302  and  _305
REMARK  127  A    between atoms: _305  and  _306
REMARK  128  A    between atoms: _309  and  _311
REMARK  129  A    between atoms: _311  and  _312
REMARK  130  A    between atoms: _311  and  _314
REMARK  131  A    between atoms: _314  and  _315
REMARK  132  A    between atoms: _318  and  _320
REMARK  133  A    between atoms: _320  and  _321
REMARK  134  A    between atoms: _320  and  _323
REMARK  135  A    between atoms: _323  and  _324
REMARK  136  A    between atoms: _327  and  _329
REMARK  137  A    between atoms: _329  and  _330
REMARK  138  A    between atoms: _329  and  _332
REMARK  139  A    between atoms: _332  and  _333
REMARK  140  A    between atoms: _336  and  _338
REMARK  141  A    between atoms: _338  and  _339
REMARK  142  A    between atoms: _341  and  _343
REMARK  143  A    between atoms: _343  and  _344
REMARK  144  A    between atoms: _347  and  _349
REMARK  145  A    between atoms: _349  and  _350
REMARK  146  A    between atoms: _349  and  _352
REMARK  147  A    between atoms: _352  and  _353
REMARK  148  A    between atoms: _356  and  _358
REMARK  149  A    between atoms: _358  and  _359
REMARK  150  A    between atoms: _358  and  _361
REMARK  151  A    between atoms: _361  and  _362
REMARK  152  A    between atoms: _365  and  _367
REMARK  153  A    between atoms: _367  and  _368
REMARK  154  A    between atoms: _367  and  _370
REMARK  155  A    between atoms: _370  and  _371
REMARK  156  A    between atoms: _374  and  _376
REMARK  157  A    between atoms: _376  and  _377
REMARK  158  A    between atoms: _376  and  _379
REMARK  159  A    between atoms: _382  and  _384
REMARK  160  A    between atoms: _384  and  _385
REMARK  161  A    between atoms: _384  and  _387
REMARK  162  A    between atoms: _387  and  _388
REMARK  163  A    between atoms: _388  and  _389
REMARK  164  A    between atoms: _389  and  _390
REMARK  165  A    between atoms: _390  and  _391
REMARK  166  A    between atoms: _395  and  _397
REMARK  167  A    between atoms: _397  and  _398
REMARK  168  A    between atoms: _397  and  _400
REMARK  169  A    between atoms: _400  and  _401
REMARK  170  A    between atoms: _401  and  _402
REMARK  171  A    between atoms: _404  and  _406
REMARK  172  A    between atoms: _406  and  _407
REMARK  173  A    between atoms: _406  and  _409
REMARK  174  A    between atoms: _409  and  _410
REMARK  175  A    between atoms: _413  and  _415
REMARK  176  A    between atoms: _415  and  _416
REMARK  177  A    between atoms: _418  and  _420
REMARK  178  A    between atoms: _420  and  _421
REMARK  179  A    between atoms: _423  and  _425
REMARK  180  A    between atoms: _425  and  _426
REMARK  181  A    between atoms: _425  and  _428
REMARK  182  A    between atoms: _428  and  _429
REMARK  183  A    between atoms: _432  and  _434
REMARK  184  A    between atoms: _434  and  _435
REMARK  185  A    between atoms: _437  and  _439
REMARK  186  A    between atoms: _439  and  _440
REMARK  187  A    between atoms: _442  and  _444
REMARK  188  A    between atoms: _444  and  _445
REMARK  189  A    between atoms: _444  and  _447
REMARK  190  A    between atoms: _447  and  _448
REMARK  191  A    between atoms: _454  and  _456
REMARK  192  A    between atoms: _456  and  _457
REMARK  193  A    between atoms: _456  and  _459
REMARK  194  A    between atoms: _459  and  _460
REMARK  195  A    between atoms: _463  and  _465
REMARK  196  A    between atoms: _465  and  _466
REMARK  197  A    between atoms: _465  and  _468
REMARK  198  A    between atoms: _471  and  _473
REMARK  199  A    between atoms: _473  and  _474
REMARK  200  A    between atoms: _473  and  _476
REMARK  201  A    between atoms: _476  and  _477
REMARK  202  A    between atoms: _481  and  _482
REMARK  203  A    between atoms: _487  and  _489
REMARK  204  A    between atoms: _489  and  _490
REMARK  205  A    between atoms: _489  and  _492
REMARK  206  A    between atoms: _492  and  _493
REMARK  207  A    between atoms: _497  and  _498
REMARK  208  A    between atoms: _503  and  _505
REMARK  209  A    between atoms: _505  and  _506
REMARK  210  A    between atoms: _505  and  _508
REMARK  211  A    between atoms: _511  and  _513
REMARK  212  A    between atoms: _513  and  _514
REMARK  213  A    between atoms: _513  and  _516
REMARK  214  A    between atoms: _516  and  _517
REMARK  215  A    between atoms: _522  and  _524
REMARK  216  A    between atoms: _524  and  _525
REMARK  217  A    between atoms: _524  and  _527
REMARK  218  A    between atoms: _527  and  _528
REMARK  219  A    between atoms: _531  and  _533
REMARK  220  A    between atoms: _533  and  _534
REMARK  221  A    between atoms: _533  and  _536
REMARK  222  A    between atoms: _536  and  _537
REMARK  223  A    between atoms: _540  and  _542
REMARK  224  A    between atoms: _542  and  _543
REMARK  225  A    between atoms: _545  and  _547
REMARK  226  A    between atoms: _547  and  _548
REMARK  227  A    between atoms: _547  and  _550
REMARK  228  A    between atoms: _550  and  _551
REMARK  229  A    between atoms: _551  and  _552
REMARK  230  A    between atoms: _552  and  _553
REMARK  231  A    between atoms: _562  and  _564
REMARK  232  A    between atoms: _564  and  _565
REMARK  233  A    between atoms: _564  and  _567
REMARK  234  A    between atoms: _567  and  _568
REMARK                            x       y       z     vdW  Elec       q    Type
REMARK                         _______ _______ _______ _____ _____    ______ ____
ROOT
ATOM      1  O   HOH     1       4.527   9.504  15.579  0.00  0.00    +0.000 OA
ENDROOT
TORSDOF 0
REMARK  Name = ../refined-set-2016/3vfb/3vfb_pocket.pdb
REMARK  234 active torsions:
REMARK  status: ('A' for Active; 'I' for Inactive)
REMARK    1  A    between atoms: _1  and  _3
REMARK    2  A    between atoms: _3  and  _4
REMARK    3  A    between atoms: _3  and  _6
REMARK    4  A    between atoms: _6  and  _7
REMARK    5  A    between atoms: _7  and  _8
REMARK    6  A    between atoms: _8  and  _9
REMARK    7  A    between atoms: _18  and  _20
REMARK    8  A    between atoms: _20  and  _21
REMARK    9  A    between atoms: _20  and  _23
REMARK   10  A    between atoms: _23  and  _24
REMARK   11  A    between atoms: _27  and  _29
REMARK   12  A    between atoms: _29  and  _30
REMARK   13  A    between atoms: _29  and  _32
REMARK   14  A    between atoms: _32  and  _33
REMARK   15  A    between atoms: _36  and  _38
REMARK   16  A    between atoms: _38  and  _39
REMARK   17  A    between atoms: _38  and  _41
REMARK   18  A    between atoms: _41  and  _42
REMARK   19  A    between atoms: _45  and  _47
REMARK   20  A    between atoms: _47  and  _48
REMARK   21  A    between atoms: _47  and  _50
REMARK   22  A    between atoms: _50  and  _51
REMARK   23  A    between atoms: _54  and  _56
REMARK   24  A    between atoms: _56  and  _57
REMARK   25  A    between atoms: _56  and  _59
REMARK   26  A    between atoms: _59  and  _60
REMARK   27  A    between atoms: _63  and  _65
REMARK   28  A    between atoms: _65  and  _66
REMARK   29  A    between atoms: _68  and  _70
REMARK   30  A    between atoms: _70  and  _71
REMARK   31  A    between atoms: _74  and  _76
REMARK   32  A    between atoms: _76  and  _77
REMARK   33  A    between atoms: _76  and  _79
REMARK   34  A    between atoms: _79  and  _80
REMARK   35  A    between atoms: _83  and  _85
REMARK   36  A    between atoms: _85  and  _86
REMARK   37  A    between atoms: _85  and  _88
REMARK   38  A    between atoms: _88  and  _89
REMARK   39  A    between atoms: _92  and  _94
REMARK   40  A    between atoms: _94  and  _95
REMARK   41  A    between atoms: _94  and  _97
REMARK   42  A    between atoms: _97  and  _98
REMARK   43  A    between atoms: _101  and  _103
REMARK   44  A    between atoms: _103  and  _104
REMARK   45  A    between atoms: _103  and  _106
REMARK   46  A    between atoms: _109  and  _111
REMARK   47  A    between atoms: _111  and  _112
REMARK   48  A    between atoms: _111  and  _114
REMARK   49  A    between atoms: _114  and  _115
REMARK   50  A    between atoms: _115  and  _116
REMARK   51  A    between atoms: _116  and  _117
REMARK   52  A    between atoms: _117  and  _118
REMARK   53  A    between atoms: _122  and  _124
REMARK   54  A    between atoms: _124  and  _125
REMARK   55  A    between atoms: _124  and  _127
REMARK   56  A    between atoms: _127  and  _128
REMARK   57  A    between atoms: _128  and  _129
REMARK   58  A    between atoms: _131  and  _133
REMARK   59  A    between atoms: _133  and  _134
REMARK   60  A    between atoms: _133  and  _136
REMARK   61  A    between atoms: _136  and  _137
REMARK   62  A    between atoms: _140  and  _142
REMARK   63  A    between atoms: _142  and  _143
REMARK   64  A    between atoms: _145  and  _147
REMARK   65  A    between atoms: _147  and  _148
REMARK   66  A    between atoms: _150  and  _152
REMARK   67  A    between atoms: _152  and  _153
REMARK   68  A    between atoms: _152  and  _155
REMARK   69  A    between atoms: _155  and  _156
REMARK   70  A    between atoms: _159  and  _161
REMARK   71  A    between atoms: _161  and  _162
REMARK   72  A    between atoms: _164  and  _166
REMARK   73  A    between atoms: _166  and  _167
REMARK   74  A    between atoms: _169  and  _171
REMARK   75  A    between atoms: _171  and  _172
REMARK   76  A    between atoms: _171  and  _174
REMARK   77  A    between atoms: _174  and  _175
REMARK   78  A    between atoms: _181  and  _183
REMARK   79  A    between atoms: _183  and  _184
REMARK   80  A    between atoms: _183  and  _186
REMARK   81  A    between atoms: _186  and  _187
REMARK   82  A    between atoms: _190  and  _192
REMARK   83  A    between atoms: _192  and  _193
REMARK   84  A    between atoms: _192  and  _195
REMARK   85  A    between atoms: _195  and  _196
REMARK   86  A    between atoms: _199  and  _201
REMARK   87  A    between atoms: _201  and  _202
REMARK   88  A    between atoms: _201  and  _204
REMARK   89  A    between atoms: _204  and  _205
REMARK   90  A    between atoms: _209  and  _210
REMARK   91  A    between atoms: _215  and  _217
REMARK   92  A    between atoms: _217  and  _218
REMARK   93  A    between atoms: _217  and  _220
REMARK   94  A    between atoms: _223  and  _225
REMARK   95  A    between atoms: _225  and  _226
REMARK   96  A    between atoms: _225  and  _228
REMARK   97  A    between atoms: _228  and  _229
REMARK   98  A    between atoms: _234  and  _236
REMARK   99  A    between atoms: _236  and  _237
REMARK  100  A    between atoms: _236  and  _239
REMARK  101  A    between atoms: _239  and  _240
REMARK  102  A    between atoms: _243  and  _245
REMARK  103  A    between atoms: _245  and  _246
REMARK  104  A    between atoms: _245  and  _248
REMARK  105  A    between atoms: _248  and  _249
REMARK  106  A    between atoms: _252  and  _254
REMARK  107  A    between atoms: _254  and  _255
REMARK  108  A    between atoms: _257  and  _259
REMARK  109  A    between atoms: _259  and  _260
REMARK  110  A    between atoms: _259  and  _262
REMARK  111  A    between atoms: _262  and  _263
REMARK  112  A    between atoms: _263  and  _264
REMARK  113  A    between atoms: _264  and  _265
REMARK  114  A    between atoms: _274  and  _276
REMARK  115  A    between atoms: _276  and  _277
REMARK  116  A    between atoms: _276  and  _279
REMARK  117  A    between atoms: _279  and  _280
REMARK  118  A    between atoms: _283  and  _285
REMARK  119  A    between atoms: _285  and  _286
REMARK  120  A    between atoms: _285  and  _288
REMARK  121  A    between atoms: _288  and  _289
REMARK  122  A    between atoms: _289  and  _290
REMARK  123  A    between atoms: _290  and  _291
REMARK  124  A    between atoms: _300  and  _302
REMARK  125  A    between atoms: _302  and  _303
REMARK  126  A    between atoms: _302  and  _305
REMARK  127  A    between atoms: _305  and  _306
REMARK  128  A    between atoms: _309  and  _311
REMARK  129  A    between atoms: _311  and  _312
REMARK  130  A    between atoms: _311  and  _314
REMARK  131  A    between atoms: _314  and  _315
REMARK  132  A    between atoms: _318  and  _320
REMARK  133  A    between atoms: _320  and  _321
REMARK  134  A    between atoms: _320  and  _323
REMARK  135  A    between atoms: _323  and  _324
REMARK  136  A    between atoms: _327  and  _329
REMARK  137  A    between atoms: _329  and  _330
REMARK  138  A    between atoms: _329  and  _332
REMARK  139  A    between atoms: _332  and  _333
REMARK  140  A    between atoms: _336  and  _338
REMARK  141  A    between atoms: _338  and  _339
REMARK  142  A    between atoms: _341  and  _343
REMARK  143  A    between atoms: _343  and  _344
REMARK  144  A    between atoms: _347  and  _349
REMARK  145  A    between atoms: _349  and  _350
REMARK  146  A    between atoms: _349  and  _352
REMARK  147  A    between atoms: _352  and  _353
REMARK  148  A    between atoms: _356  and  _358
REMARK  149  A    between atoms: _358  and  _359
REMARK  150  A    between atoms: _358  and  _361
REMARK  151  A    between atoms: _361  and  _362
REMARK  152  A    between atoms: _365  and  _367
REMARK  153  A    between atoms: _367  and  _368
REMARK  154  A    between atoms: _367  and  _370
REMARK  155  A    between atoms: _370  and  _371
REMARK  156  A    between atoms: _374  and  _376
REMARK  157  A    between atoms: _376  and  _377
REMARK  158  A    between atoms: _376  and  _379
REMARK  159  A    between atoms: _382  and  _384
REMARK  160  A    between atoms: _384  and  _385
REMARK  161  A    between atoms: _384  and  _387
REMARK  162  A    between atoms: _387  and  _388
REMARK  163  A    between atoms: _388  and  _389
REMARK  164  A    between atoms: _389  and  _390
REMARK  165  A    between atoms: _390  and  _391
REMARK  166  A    between atoms: _395  and  _397
REMARK  167  A    between atoms: _397  and  _398
REMARK  168  A    between atoms: _397  and  _400
REMARK  169  A    between atoms: _400  and  _401
REMARK  170  A    between atoms: _401  and  _402
REMARK  171  A    between atoms: _404  and  _406
REMARK  172  A    between atoms: _406  and  _407
REMARK  173  A    between atoms: _406  and  _409
REMARK  174  A    between atoms: _409  and  _410
REMARK  175  A    between atoms: _413  and  _415
REMARK  176  A    between atoms: _415  and  _416
REMARK  177  A    between atoms: _418  and  _420
REMARK  178  A    between atoms: _420  and  _421
REMARK  179  A    between atoms: _423  and  _425
REMARK  180  A    between atoms: _425  and  _426
REMARK  181  A    between atoms: _425  and  _428
REMARK  182  A    between atoms: _428  and  _429
REMARK  183  A    between atoms: _432  and  _434
REMARK  184  A    between atoms: _434  and  _435
REMARK  185  A    between atoms: _437  and  _439
REMARK  186  A    between atoms: _439  and  _440
REMARK  187  A    between atoms: _442  and  _444
REMARK  188  A    between atoms: _444  and  _445
REMARK  189  A    between atoms: _444  and  _447
REMARK  190  A    between atoms: _447  and  _448
REMARK  191  A    between atoms: _454  and  _456
REMARK  192  A    between atoms: _456  and  _457
REMARK  193  A    between atoms: _456  and  _459
REMARK  194  A    between atoms: _459  and  _460
REMARK  195  A    between atoms: _463  and  _465
REMARK  196  A    between atoms: _465  and  _466
REMARK  197  A    between atoms: _465  and  _468
REMARK  198  A    between atoms: _471  and  _473
REMARK  199  A    between atoms: _473  and  _474
REMARK  200  A    between atoms: _473  and  _476
REMARK  201  A    between atoms: _476  and  _477
REMARK  202  A    between atoms: _481  and  _482
REMARK  203  A    between atoms: _487  and  _489
REMARK  204  A    between atoms: _489  and  _490
REMARK  205  A    between atoms: _489  and  _492
REMARK  206  A    between atoms: _492  and  _493
REMARK  207  A    between atoms: _497  and  _498
REMARK  208  A    between atoms: _503  and  _505
REMARK  209  A    between atoms: _505  and  _506
REMARK  210  A    between atoms: _505  and  _508
REMARK  211  A    between atoms: _511  and  _513
REMARK  212  A    between atoms: _513  and  _514
REMARK  213  A    between atoms: _513  and  _516
REMARK  214  A    between atoms: _516  and  _517
REMARK  215  A    between atoms: _522  and  _524
REMARK  216  A    between atoms: _524  and  _525
REMARK  217  A    between atoms: _524  and  _527
REMARK  218  A    between atoms: _527  and  _528
REMARK  219  A    between atoms: _531  and  _533
REMARK  220  A    between atoms: _533  and  _534
REMARK  221  A    between atoms: _533  and  _536
REMARK  222  A    between atoms: _536  and  _537
REMARK  223  A    between atoms: _540  and  _542
REMARK  224  A    between atoms: _542  and  _543
REMARK  225  A    between atoms: _545  and  _547
REMARK  226  A    between atoms: _547  and  _548
REMARK  227  A    between atoms: _547  and  _550
REMARK  228  A    between atoms: _550  and  _551
REMARK  229  A    between atoms: _551  and  _552
REMARK  230  A    between atoms: _552  and  _553
REMARK  231  A    between atoms: _562  and  _564
REMARK  232  A    between atoms: _564  and  _565
REMARK  233  A    between atoms: _564  and  _567
REMARK  234  A    between atoms: _567  and  _568
REMARK                            x       y       z     vdW  Elec       q    Type
REMARK                         _______ _______ _______ _____ _____    ______ ____
ROOT
ATOM      1  O   HOH     1       8.927  14.232  21.132  0.00  0.00    +0.000 OA
ENDROOT
TORSDOF 0
REMARK  Name = ../refined-set-2016/3vfb/3vfb_pocket.pdb
REMARK  234 active torsions:
REMARK  status: ('A' for Active; 'I' for Inactive)
REMARK    1  A    between atoms: _1  and  _3
REMARK    2  A    between atoms: _3  and  _4
REMARK    3  A    between atoms: _3  and  _6
REMARK    4  A    between atoms: _6  and  _7
REMARK    5  A    between atoms: _7  and  _8
REMARK    6  A    between atoms: _8  and  _9
REMARK    7  A    between atoms: _18  and  _20
REMARK    8  A    between atoms: _20  and  _21
REMARK    9  A    between atoms: _20  and  _23
REMARK   10  A    between atoms: _23  and  _24
REMARK   11  A    between atoms: _27  and  _29
REMARK   12  A    between atoms: _29  and  _30
REMARK   13  A    between atoms: _29  and  _32
REMARK   14  A    between atoms: _32  and  _33
REMARK   15  A    between atoms: _36  and  _38
REMARK   16  A    between atoms: _38  and  _39
REMARK   17  A    between atoms: _38  and  _41
REMARK   18  A    between atoms: _41  and  _42
REMARK   19  A    between atoms: _45  and  _47
REMARK   20  A    between atoms: _47  and  _48
REMARK   21  A    between atoms: _47  and  _50
REMARK   22  A    between atoms: _50  and  _51
REMARK   23  A    between atoms: _54  and  _56
REMARK   24  A    between atoms: _56  and  _57
REMARK   25  A    between atoms: _56  and  _59
REMARK   26  A    between atoms: _59  and  _60
REMARK   27  A    between atoms: _63  and  _65
REMARK   28  A    between atoms: _65  and  _66
REMARK   29  A    between atoms: _68  and  _70
REMARK   30  A    between atoms: _70  and  _71
REMARK   31  A    between atoms: _74  and  _76
REMARK   32  A    between atoms: _76  and  _77
REMARK   33  A    between atoms: _76  and  _79
REMARK   34  A    between atoms: _79  and  _80
REMARK   35  A    between atoms: _83  and  _85
REMARK   36  A    between atoms: _85  and  _86
REMARK   37  A    between atoms: _85  and  _88
REMARK   38  A    between atoms: _88  and  _89
REMARK   39  A    between atoms: _92  and  _94
REMARK   40  A    between atoms: _94  and  _95
REMARK   41  A    between atoms: _94  and  _97
REMARK   42  A    between atoms: _97  and  _98
REMARK   43  A    between atoms: _101  and  _103
REMARK   44  A    between atoms: _103  and  _104
REMARK   45  A    between atoms: _103  and  _106
REMARK   46  A    between atoms: _109  and  _111
REMARK   47  A    between atoms: _111  and  _112
REMARK   48  A    between atoms: _111  and  _114
REMARK   49  A    between atoms: _114  and  _115
REMARK   50  A    between atoms: _115  and  _116
REMARK   51  A    between atoms: _116  and  _117
REMARK   52  A    between atoms: _117  and  _118
REMARK   53  A    between atoms: _122  and  _124
REMARK   54  A    between atoms: _124  and  _125
REMARK   55  A    between atoms: _124  and  _127
REMARK   56  A    between atoms: _127  and  _128
REMARK   57  A    between atoms: _128  and  _129
REMARK   58  A    between atoms: _131  and  _133
REMARK   59  A    between atoms: _133  and  _134
REMARK   60  A    between atoms: _133  and  _136
REMARK   61  A    between atoms: _136  and  _137
REMARK   62  A    between atoms: _140  and  _142
REMARK   63  A    between atoms: _142  and  _143
REMARK   64  A    between atoms: _145  and  _147
REMARK   65  A    between atoms: _147  and  _148
REMARK   66  A    between atoms: _150  and  _152
REMARK   67  A    between atoms: _152  and  _153
REMARK   68  A    between atoms: _152  and  _155
REMARK   69  A    between atoms: _155  and  _156
REMARK   70  A    between atoms: _159  and  _161
REMARK   71  A    between atoms: _161  and  _162
REMARK   72  A    between atoms: _164  and  _166
REMARK   73  A    between atoms: _166  and  _167
REMARK   74  A    between atoms: _169  and  _171
REMARK   75  A    between atoms: _171  and  _172
REMARK   76  A    between atoms: _171  and  _174
REMARK   77  A    between atoms: _174  and  _175
REMARK   78  A    between atoms: _181  and  _183
REMARK   79  A    between atoms: _183  and  _184
REMARK   80  A    between atoms: _183  and  _186
REMARK   81  A    between atoms: _186  and  _187
REMARK   82  A    between atoms: _190  and  _192
REMARK   83  A    between atoms: _192  and  _193
REMARK   84  A    between atoms: _192  and  _195
REMARK   85  A    between atoms: _195  and  _196
REMARK   86  A    between atoms: _199  and  _201
REMARK   87  A    between atoms: _201  and  _202
REMARK   88  A    between atoms: _201  and  _204
REMARK   89  A    between atoms: _204  and  _205
REMARK   90  A    between atoms: _209  and  _210
REMARK   91  A    between atoms: _215  and  _217
REMARK   92  A    between atoms: _217  and  _218
REMARK   93  A    between atoms: _217  and  _220
REMARK   94  A    between atoms: _223  and  _225
REMARK   95  A    between atoms: _225  and  _226
REMARK   96  A    between atoms: _225  and  _228
REMARK   97  A    between atoms: _228  and  _229
REMARK   98  A    between atoms: _234  and  _236
REMARK   99  A    between atoms: _236  and  _237
REMARK  100  A    between atoms: _236  and  _239
REMARK  101  A    between atoms: _239  and  _240
REMARK  102  A    between atoms: _243  and  _245
REMARK  103  A    between atoms: _245  and  _246
REMARK  104  A    between atoms: _245  and  _248
REMARK  105  A    between atoms: _248  and  _249
REMARK  106  A    between atoms: _252  and  _254
REMARK  107  A    between atoms: _254  and  _255
REMARK  108  A    between atoms: _257  and  _259
REMARK  109  A    between atoms: _259  and  _260
REMARK  110  A    between atoms: _259  and  _262
REMARK  111  A    between atoms: _262  and  _263
REMARK  112  A    between atoms: _263  and  _264
REMARK  113  A    between atoms: _264  and  _265
REMARK  114  A    between atoms: _274  and  _276
REMARK  115  A    between atoms: _276  and  _277
REMARK  116  A    between atoms: _276  and  _279
REMARK  117  A    between atoms: _279  and  _280
REMARK  118  A    between atoms: _283  and  _285
REMARK  119  A    between atoms: _285  and  _286
REMARK  120  A    between atoms: _285  and  _288
REMARK  121  A    between atoms: _288  and  _289
REMARK  122  A    between atoms: _289  and  _290
REMARK  123  A    between atoms: _290  and  _291
REMARK  124  A    between atoms: _300  and  _302
REMARK  125  A    between atoms: _302  and  _303
REMARK  126  A    between atoms: _302  and  _305
REMARK  127  A    between atoms: _305  and  _306
REMARK  128  A    between atoms: _309  and  _311
REMARK  129  A    between atoms: _311  and  _312
REMARK  130  A    between atoms: _311  and  _314
REMARK  131  A    between atoms: _314  and  _315
REMARK  132  A    between atoms: _318  and  _320
REMARK  133  A    between atoms: _320  and  _321
REMARK  134  A    between atoms: _320  and  _323
REMARK  135  A    between atoms: _323  and  _324
REMARK  136  A    between atoms: _327  and  _329
REMARK  137  A    between atoms: _329  and  _330
REMARK  138  A    between atoms: _329  and  _332
REMARK  139  A    between atoms: _332  and  _333
REMARK  140  A    between atoms: _336  and  _338
REMARK  141  A    between atoms: _338  and  _339
REMARK  142  A    between atoms: _341  and  _343
REMARK  143  A    between atoms: _343  and  _344
REMARK  144  A    between atoms: _347  and  _349
REMARK  145  A    between atoms: _349  and  _350
REMARK  146  A    between atoms: _349  and  _352
REMARK  147  A    between atoms: _352  and  _353
REMARK  148  A    between atoms: _356  and  _358
REMARK  149  A    between atoms: _358  and  _359
REMARK  150  A    between atoms: _358  and  _361
REMARK  151  A    between atoms: _361  and  _362
REMARK  152  A    between atoms: _365  and  _367
REMARK  153  A    between atoms: _367  and  _368
REMARK  154  A    between atoms: _367  and  _370
REMARK  155  A    between atoms: _370  and  _371
REMARK  156  A    between atoms: _374  and  _376
REMARK  157  A    between atoms: _376  and  _377
REMARK  158  A    between atoms: _376  and  _379
REMARK  159  A    between atoms: _382  and  _384
REMARK  160  A    between atoms: _384  and  _385
REMARK  161  A    between atoms: _384  and  _387
REMARK  162  A    between atoms: _387  and  _388
REMARK  163  A    between atoms: _388  and  _389
REMARK  164  A    between atoms: _389  and  _390
REMARK  165  A    between atoms: _390  and  _391
REMARK  166  A    between atoms: _395  and  _397
REMARK  167  A    between atoms: _397  and  _398
REMARK  168  A    between atoms: _397  and  _400
REMARK  169  A    between atoms: _400  and  _401
REMARK  170  A    between atoms: _401  and  _402
REMARK  171  A    between atoms: _404  and  _406
REMARK  172  A    between atoms: _406  and  _407
REMARK  173  A    between atoms: _406  and  _409
REMARK  174  A    between atoms: _409  and  _410
REMARK  175  A    between atoms: _413  and  _415
REMARK  176  A    between atoms: _415  and  _416
REMARK  177  A    between atoms: _418  and  _420
REMARK  178  A    between atoms: _420  and  _421
REMARK  179  A    between atoms: _423  and  _425
REMARK  180  A    between atoms: _425  and  _426
REMARK  181  A    between atoms: _425  and  _428
REMARK  182  A    between atoms: _428  and  _429
REMARK  183  A    between atoms: _432  and  _434
REMARK  184  A    between atoms: _434  and  _435
REMARK  185  A    between atoms: _437  and  _439
REMARK  186  A    between atoms: _439  and  _440
REMARK  187  A    between atoms: _442  and  _444
REMARK  188  A    between atoms: _444  and  _445
REMARK  189  A    between atoms: _444  and  _447
REMARK  190  A    between atoms: _447  and  _448
REMARK  191  A    between atoms: _454  and  _456
REMARK  192  A    between atoms: _456  and  _457
REMARK  193  A    between atoms: _456  and  _459
REMARK  194  A    between atoms: _459  and  _460
REMARK  195  A    between atoms: _463  and  _465
REMARK  196  A    between atoms: _465  and  _466
REMARK  197  A    between atoms: _465  and  _468
REMARK  198  A    between atoms: _471  and  _473
REMARK  199  A    between atoms: _473  and  _474
REMARK  200  A    between atoms: _473  and  _476
REMARK  201  A    between atoms: _476  and  _477
REMARK  202  A    between atoms: _481  and  _482
REMARK  203  A    between atoms: _487  and  _489
REMARK  204  A    between atoms: _489  and  _490
REMARK  205  A    between atoms: _489  and  _492
REMARK  206  A    between atoms: _492  and  _493
REMARK  207  A    between atoms: _497  and  _498
REMARK  208  A    between atoms: _503  and  _505
REMARK  209  A    between atoms: _505  and  _506
REMARK  210  A    between atoms: _505  and  _508
REMARK  211  A    between atoms: _511  and  _513
REMARK  212  A    between atoms: _513  and  _514
REMARK  213  A    between atoms: _513  and  _516
REMARK  214  A    between atoms: _516  and  _517
REMARK  215  A    between atoms: _522  and  _524
REMARK  216  A    between atoms: _524  and  _525
REMARK  217  A    between atoms: _524  and  _527
REMARK  218  A    between atoms: _527  and  _528
REMARK  219  A    between atoms: _531  and  _533
REMARK  220  A    between atoms: _533  and  _534
REMARK  221  A    between atoms: _533  and  _536
REMARK  222  A    between atoms: _536  and  _537
REMARK  223  A    between atoms: _540  and  _542
REMARK  224  A    between atoms: _542  and  _543
REMARK  225  A    between atoms: _545  and  _547
REMARK  226  A    between atoms: _547  and  _548
REMARK  227  A    between atoms: _547  and  _550
REMARK  228  A    between atoms: _550  and  _551
REMARK  229  A    between atoms: _551  and  _552
REMARK  230  A    between atoms: _552  and  _553
REMARK  231  A    between atoms: _562  and  _564
REMARK  232  A    between atoms: _564  and  _565
REMARK  233  A    between atoms: _564  and  _567
REMARK  234  A    between atoms: _567  and  _568
REMARK                            x       y       z     vdW  Elec       q    Type
REMARK                         _______ _______ _______ _____ _____    ______ ____
ROOT
ATOM      1  O   HOH     1      -0.427  14.241  13.409  0.00  0.00    +0.000 OA
ENDROOT
TORSDOF 0
REMARK  Name = ../refined-set-2016/3vfb/3vfb_pocket.pdb
REMARK  234 active torsions:
REMARK  status: ('A' for Active; 'I' for Inactive)
REMARK    1  A    between atoms: _1  and  _3
REMARK    2  A    between atoms: _3  and  _4
REMARK    3  A    between atoms: _3  and  _6
REMARK    4  A    between atoms: _6  and  _7
REMARK    5  A    between atoms: _7  and  _8
REMARK    6  A    between atoms: _8  and  _9
REMARK    7  A    between atoms: _18  and  _20
REMARK    8  A    between atoms: _20  and  _21
REMARK    9  A    between atoms: _20  and  _23
REMARK   10  A    between atoms: _23  and  _24
REMARK   11  A    between atoms: _27  and  _29
REMARK   12  A    between atoms: _29  and  _30
REMARK   13  A    between atoms: _29  and  _32
REMARK   14  A    between atoms: _32  and  _33
REMARK   15  A    between atoms: _36  and  _38
REMARK   16  A    between atoms: _38  and  _39
REMARK   17  A    between atoms: _38  and  _41
REMARK   18  A    between atoms: _41  and  _42
REMARK   19  A    between atoms: _45  and  _47
REMARK   20  A    between atoms: _47  and  _48
REMARK   21  A    between atoms: _47  and  _50
REMARK   22  A    between atoms: _50  and  _51
REMARK   23  A    between atoms: _54  and  _56
REMARK   24  A    between atoms: _56  and  _57
REMARK   25  A    between atoms: _56  and  _59
REMARK   26  A    between atoms: _59  and  _60
REMARK   27  A    between atoms: _63  and  _65
REMARK   28  A    between atoms: _65  and  _66
REMARK   29  A    between atoms: _68  and  _70
REMARK   30  A    between atoms: _70  and  _71
REMARK   31  A    between atoms: _74  and  _76
REMARK   32  A    between atoms: _76  and  _77
REMARK   33  A    between atoms: _76  and  _79
REMARK   34  A    between atoms: _79  and  _80
REMARK   35  A    between atoms: _83  and  _85
REMARK   36  A    between atoms: _85  and  _86
REMARK   37  A    between atoms: _85  and  _88
REMARK   38  A    between atoms: _88  and  _89
REMARK   39  A    between atoms: _92  and  _94
REMARK   40  A    between atoms: _94  and  _95
REMARK   41  A    between atoms: _94  and  _97
REMARK   42  A    between atoms: _97  and  _98
REMARK   43  A    between atoms: _101  and  _103
REMARK   44  A    between atoms: _103  and  _104
REMARK   45  A    between atoms: _103  and  _106
REMARK   46  A    between atoms: _109  and  _111
REMARK   47  A    between atoms: _111  and  _112
REMARK   48  A    between atoms: _111  and  _114
REMARK   49  A    between atoms: _114  and  _115
REMARK   50  A    between atoms: _115  and  _116
REMARK   51  A    between atoms: _116  and  _117
REMARK   52  A    between atoms: _117  and  _118
REMARK   53  A    between atoms: _122  and  _124
REMARK   54  A    between atoms: _124  and  _125
REMARK   55  A    between atoms: _124  and  _127
REMARK   56  A    between atoms: _127  and  _128
REMARK   57  A    between atoms: _128  and  _129
REMARK   58  A    between atoms: _131  and  _133
REMARK   59  A    between atoms: _133  and  _134
REMARK   60  A    between atoms: _133  and  _136
REMARK   61  A    between atoms: _136  and  _137
REMARK   62  A    between atoms: _140  and  _142
REMARK   63  A    between atoms: _142  and  _143
REMARK   64  A    between atoms: _145  and  _147
REMARK   65  A    between atoms: _147  and  _148
REMARK   66  A    between atoms: _150  and  _152
REMARK   67  A    between atoms: _152  and  _153
REMARK   68  A    between atoms: _152  and  _155
REMARK   69  A    between atoms: _155  and  _156
REMARK   70  A    between atoms: _159  and  _161
REMARK   71  A    between atoms: _161  and  _162
REMARK   72  A    between atoms: _164  and  _166
REMARK   73  A    between atoms: _166  and  _167
REMARK   74  A    between atoms: _169  and  _171
REMARK   75  A    between atoms: _171  and  _172
REMARK   76  A    between atoms: _171  and  _174
REMARK   77  A    between atoms: _174  and  _175
REMARK   78  A    between atoms: _181  and  _183
REMARK   79  A    between atoms: _183  and  _184
REMARK   80  A    between atoms: _183  and  _186
REMARK   81  A    between atoms: _186  and  _187
REMARK   82  A    between atoms: _190  and  _192
REMARK   83  A    between atoms: _192  and  _193
REMARK   84  A    between atoms: _192  and  _195
REMARK   85  A    between atoms: _195  and  _196
REMARK   86  A    between atoms: _199  and  _201
REMARK   87  A    between atoms: _201  and  _202
REMARK   88  A    between atoms: _201  and  _204
REMARK   89  A    between atoms: _204  and  _205
REMARK   90  A    between atoms: _209  and  _210
REMARK   91  A    between atoms: _215  and  _217
REMARK   92  A    between atoms: _217  and  _218
REMARK   93  A    between atoms: _217  and  _220
REMARK   94  A    between atoms: _223  and  _225
REMARK   95  A    between atoms: _225  and  _226
REMARK   96  A    between atoms: _225  and  _228
REMARK   97  A    between atoms: _228  and  _229
REMARK   98  A    between atoms: _234  and  _236
REMARK   99  A    between atoms: _236  and  _237
REMARK  100  A    between atoms: _236  and  _239
REMARK  101  A    between atoms: _239  and  _240
REMARK  102  A    between atoms: _243  and  _245
REMARK  103  A    between atoms: _245  and  _246
REMARK  104  A    between atoms: _245  and  _248
REMARK  105  A    between atoms: _248  and  _249
REMARK  106  A    between atoms: _252  and  _254
REMARK  107  A    between atoms: _254  and  _255
REMARK  108  A    between atoms: _257  and  _259
REMARK  109  A    between atoms: _259  and  _260
REMARK  110  A    between atoms: _259  and  _262
REMARK  111  A    between atoms: _262  and  _263
REMARK  112  A    between atoms: _263  and  _264
REMARK  113  A    between atoms: _264  and  _265
REMARK  114  A    between atoms: _274  and  _276
REMARK  115  A    between atoms: _276  and  _277
REMARK  116  A    between atoms: _276  and  _279
REMARK  117  A    between atoms: _279  and  _280
REMARK  118  A    between atoms: _283  and  _285
REMARK  119  A    between atoms: _285  and  _286
REMARK  120  A    between atoms: _285  and  _288
REMARK  121  A    between atoms: _288  and  _289
REMARK  122  A    between atoms: _289  and  _290
REMARK  123  A    between atoms: _290  and  _291
REMARK  124  A    between atoms: _300  and  _302
REMARK  125  A    between atoms: _302  and  _303
REMARK  126  A    between atoms: _302  and  _305
REMARK  127  A    between atoms: _305  and  _306
REMARK  128  A    between atoms: _309  and  _311
REMARK  129  A    between atoms: _311  and  _312
REMARK  130  A    between atoms: _311  and  _314
REMARK  131  A    between atoms: _314  and  _315
REMARK  132  A    between atoms: _318  and  _320
REMARK  133  A    between atoms: _320  and  _321
REMARK  134  A    between atoms: _320  and  _323
REMARK  135  A    between atoms: _323  and  _324
REMARK  136  A    between atoms: _327  and  _329
REMARK  137  A    between atoms: _329  and  _330
REMARK  138  A    between atoms: _329  and  _332
REMARK  139  A    between atoms: _332  and  _333
REMARK  140  A    between atoms: _336  and  _338
REMARK  141  A    between atoms: _338  and  _339
REMARK  142  A    between atoms: _341  and  _343
REMARK  143  A    between atoms: _343  and  _344
REMARK  144  A    between atoms: _347  and  _349
REMARK  145  A    between atoms: _349  and  _350
REMARK  146  A    between atoms: _349  and  _352
REMARK  147  A    between atoms: _352  and  _353
REMARK  148  A    between atoms: _356  and  _358
REMARK  149  A    between atoms: _358  and  _359
REMARK  150  A    between atoms: _358  and  _361
REMARK  151  A    between atoms: _361  and  _362
REMARK  152  A    between atoms: _365  and  _367
REMARK  153  A    between atoms: _367  and  _368
REMARK  154  A    between atoms: _367  and  _370
REMARK  155  A    between atoms: _370  and  _371
REMARK  156  A    between atoms: _374  and  _376
REMARK  157  A    between atoms: _376  and  _377
REMARK  158  A    between atoms: _376  and  _379
REMARK  159  A    between atoms: _382  and  _384
REMARK  160  A    between atoms: _384  and  _385
REMARK  161  A    between atoms: _384  and  _387
REMARK  162  A    between atoms: _387  and  _388
REMARK  163  A    between atoms: _388  and  _389
REMARK  164  A    between atoms: _389  and  _390
REMARK  165  A    between atoms: _390  and  _391
REMARK  166  A    between atoms: _395  and  _397
REMARK  167  A    between atoms: _397  and  _398
REMARK  168  A    between atoms: _397  and  _400
REMARK  169  A    between atoms: _400  and  _401
REMARK  170  A    between atoms: _401  and  _402
REMARK  171  A    between atoms: _404  and  _406
REMARK  172  A    between atoms: _406  and  _407
REMARK  173  A    between atoms: _406  and  _409
REMARK  174  A    between atoms: _409  and  _410
REMARK  175  A    between atoms: _413  and  _415
REMARK  176  A    between atoms: _415  and  _416
REMARK  177  A    between atoms: _418  and  _420
REMARK  178  A    between atoms: _420  and  _421
REMARK  179  A    between atoms: _423  and  _425
REMARK  180  A    between atoms: _425  and  _426
REMARK  181  A    between atoms: _425  and  _428
REMARK  182  A    between atoms: _428  and  _429
REMARK  183  A    between atoms: _432  and  _434
REMARK  184  A    between atoms: _434  and  _435
REMARK  185  A    between atoms: _437  and  _439
REMARK  186  A    between atoms: _439  and  _440
REMARK  187  A    between atoms: _442  and  _444
REMARK  188  A    between atoms: _444  and  _445
REMARK  189  A    between atoms: _444  and  _447
REMARK  190  A    between atoms: _447  and  _448
REMARK  191  A    between atoms: _454  and  _456
REMARK  192  A    between atoms: _456  and  _457
REMARK  193  A    between atoms: _456  and  _459
REMARK  194  A    between atoms: _459  and  _460
REMARK  195  A    between atoms: _463  and  _465
REMARK  196  A    between atoms: _465  and  _466
REMARK  197  A    between atoms: _465  and  _468
REMARK  198  A    between atoms: _471  and  _473
REMARK  199  A    between atoms: _473  and  _474
REMARK  200  A    between atoms: _473  and  _476
REMARK  201  A    between atoms: _476  and  _477
REMARK  202  A    between atoms: _481  and  _482
REMARK  203  A    between atoms: _487  and  _489
REMARK  204  A    between atoms: _489  and  _490
REMARK  205  A    between atoms: _489  and  _492
REMARK  206  A    between atoms: _492  and  _493
REMARK  207  A    between atoms: _497  and  _498
REMARK  208  A    between atoms: _503  and  _505
REMARK  209  A    between atoms: _505  and  _506
REMARK  210  A    between atoms: _505  and  _508
REMARK  211  A    between atoms: _511  and  _513
REMARK  212  A    between atoms: _513  and  _514
REMARK  213  A    between atoms: _513  and  _516
REMARK  214  A    between atoms: _516  and  _517
REMARK  215  A    between atoms: _522  and  _524
REMARK  216  A    between atoms: _524  and  _525
REMARK  217  A    between atoms: _524  and  _527
REMARK  218  A    between atoms: _527  and  _528
REMARK  219  A    between atoms: _531  and  _533
REMARK  220  A    between atoms: _533  and  _534
REMARK  221  A    between atoms: _533  and  _536
REMARK  222  A    between atoms: _536  and  _537
REMARK  223  A    between atoms: _540  and  _542
REMARK  224  A    between atoms: _542  and  _543
REMARK  225  A    between atoms: _545  and  _547
REMARK  226  A    between atoms: _547  and  _548
REMARK  227  A    between atoms: _547  and  _550
REMARK  228  A    between atoms: _550  and  _551
REMARK  229  A    between atoms: _551  and  _552
REMARK  230  A    between atoms: _552  and  _553
REMARK  231  A    between atoms: _562  and  _564
REMARK  232  A    between atoms: _564  and  _565
REMARK  233  A    between atoms: _564  and  _567
REMARK  234  A    between atoms: _567  and  _568
REMARK                            x       y       z     vdW  Elec       q    Type
REMARK                         _______ _______ _______ _____ _____    ______ ____
ROOT
ATOM      1  O   HOH     1      23.334  21.019  11.184  0.00  0.00    +0.000 OA
ENDROOT
TORSDOF 0
REMARK  Name = ../refined-set-2016/3vfb/3vfb_pocket.pdb
REMARK  234 active torsions:
REMARK  status: ('A' for Active; 'I' for Inactive)
REMARK    1  A    between atoms: _1  and  _3
REMARK    2  A    between atoms: _3  and  _4
REMARK    3  A    between atoms: _3  and  _6
REMARK    4  A    between atoms: _6  and  _7
REMARK    5  A    between atoms: _7  and  _8
REMARK    6  A    between atoms: _8  and  _9
REMARK    7  A    between atoms: _18  and  _20
REMARK    8  A    between atoms: _20  and  _21
REMARK    9  A    between atoms: _20  and  _23
REMARK   10  A    between atoms: _23  and  _24
REMARK   11  A    between atoms: _27  and  _29
REMARK   12  A    between atoms: _29  and  _30
REMARK   13  A    between atoms: _29  and  _32
REMARK   14  A    between atoms: _32  and  _33
REMARK   15  A    between atoms: _36  and  _38
REMARK   16  A    between atoms: _38  and  _39
REMARK   17  A    between atoms: _38  and  _41
REMARK   18  A    between atoms: _41  and  _42
REMARK   19  A    between atoms: _45  and  _47
REMARK   20  A    between atoms: _47  and  _48
REMARK   21  A    between atoms: _47  and  _50
REMARK   22  A    between atoms: _50  and  _51
REMARK   23  A    between atoms: _54  and  _56
REMARK   24  A    between atoms: _56  and  _57
REMARK   25  A    between atoms: _56  and  _59
REMARK   26  A    between atoms: _59  and  _60
REMARK   27  A    between atoms: _63  and  _65
REMARK   28  A    between atoms: _65  and  _66
REMARK   29  A    between atoms: _68  and  _70
REMARK   30  A    between atoms: _70  and  _71
REMARK   31  A    between atoms: _74  and  _76
REMARK   32  A    between atoms: _76  and  _77
REMARK   33  A    between atoms: _76  and  _79
REMARK   34  A    between atoms: _79  and  _80
REMARK   35  A    between atoms: _83  and  _85
REMARK   36  A    between atoms: _85  and  _86
REMARK   37  A    between atoms: _85  and  _88
REMARK   38  A    between atoms: _88  and  _89
REMARK   39  A    between atoms: _92  and  _94
REMARK   40  A    between atoms: _94  and  _95
REMARK   41  A    between atoms: _94  and  _97
REMARK   42  A    between atoms: _97  and  _98
REMARK   43  A    between atoms: _101  and  _103
REMARK   44  A    between atoms: _103  and  _104
REMARK   45  A    between atoms: _103  and  _106
REMARK   46  A    between atoms: _109  and  _111
REMARK   47  A    between atoms: _111  and  _112
REMARK   48  A    between atoms: _111  and  _114
REMARK   49  A    between atoms: _114  and  _115
REMARK   50  A    between atoms: _115  and  _116
REMARK   51  A    between atoms: _116  and  _117
REMARK   52  A    between atoms: _117  and  _118
REMARK   53  A    between atoms: _122  and  _124
REMARK   54  A    between atoms: _124  and  _125
REMARK   55  A    between atoms: _124  and  _127
REMARK   56  A    between atoms: _127  and  _128
REMARK   57  A    between atoms: _128  and  _129
REMARK   58  A    between atoms: _131  and  _133
REMARK   59  A    between atoms: _133  and  _134
REMARK   60  A    between atoms: _133  and  _136
REMARK   61  A    between atoms: _136  and  _137
REMARK   62  A    between atoms: _140  and  _142
REMARK   63  A    between atoms: _142  and  _143
REMARK   64  A    between atoms: _145  and  _147
REMARK   65  A    between atoms: _147  and  _148
REMARK   66  A    between atoms: _150  and  _152
REMARK   67  A    between atoms: _152  and  _153
REMARK   68  A    between atoms: _152  and  _155
REMARK   69  A    between atoms: _155  and  _156
REMARK   70  A    between atoms: _159  and  _161
REMARK   71  A    between atoms: _161  and  _162
REMARK   72  A    between atoms: _164  and  _166
REMARK   73  A    between atoms: _166  and  _167
REMARK   74  A    between atoms: _169  and  _171
REMARK   75  A    between atoms: _171  and  _172
REMARK   76  A    between atoms: _171  and  _174
REMARK   77  A    between atoms: _174  and  _175
REMARK   78  A    between atoms: _181  and  _183
REMARK   79  A    between atoms: _183  and  _184
REMARK   80  A    between atoms: _183  and  _186
REMARK   81  A    between atoms: _186  and  _187
REMARK   82  A    between atoms: _190  and  _192
REMARK   83  A    between atoms: _192  and  _193
REMARK   84  A    between atoms: _192  and  _195
REMARK   85  A    between atoms: _195  and  _196
REMARK   86  A    between atoms: _199  and  _201
REMARK   87  A    between atoms: _201  and  _202
REMARK   88  A    between atoms: _201  and  _204
REMARK   89  A    between atoms: _204  and  _205
REMARK   90  A    between atoms: _209  and  _210
REMARK   91  A    between atoms: _215  and  _217
REMARK   92  A    between atoms: _217  and  _218
REMARK   93  A    between atoms: _217  and  _220
REMARK   94  A    between atoms: _223  and  _225
REMARK   95  A    between atoms: _225  and  _226
REMARK   96  A    between atoms: _225  and  _228
REMARK   97  A    between atoms: _228  and  _229
REMARK   98  A    between atoms: _234  and  _236
REMARK   99  A    between atoms: _236  and  _237
REMARK  100  A    between atoms: _236  and  _239
REMARK  101  A    between atoms: _239  and  _240
REMARK  102  A    between atoms: _243  and  _245
REMARK  103  A    between atoms: _245  and  _246
REMARK  104  A    between atoms: _245  and  _248
REMARK  105  A    between atoms: _248  and  _249
REMARK  106  A    between atoms: _252  and  _254
REMARK  107  A    between atoms: _254  and  _255
REMARK  108  A    between atoms: _257  and  _259
REMARK  109  A    between atoms: _259  and  _260
REMARK  110  A    between atoms: _259  and  _262
REMARK  111  A    between atoms: _262  and  _263
REMARK  112  A    between atoms: _263  and  _264
REMARK  113  A    between atoms: _264  and  _265
REMARK  114  A    between atoms: _274  and  _276
REMARK  115  A    between atoms: _276  and  _277
REMARK  116  A    between atoms: _276  and  _279
REMARK  117  A    between atoms: _279  and  _280
REMARK  118  A    between atoms: _283  and  _285
REMARK  119  A    between atoms: _285  and  _286
REMARK  120  A    between atoms: _285  and  _288
REMARK  121  A    between atoms: _288  and  _289
REMARK  122  A    between atoms: _289  and  _290
REMARK  123  A    between atoms: _290  and  _291
REMARK  124  A    between atoms: _300  and  _302
REMARK  125  A    between atoms: _302  and  _303
REMARK  126  A    between atoms: _302  and  _305
REMARK  127  A    between atoms: _305  and  _306
REMARK  128  A    between atoms: _309  and  _311
REMARK  129  A    between atoms: _311  and  _312
REMARK  130  A    between atoms: _311  and  _314
REMARK  131  A    between atoms: _314  and  _315
REMARK  132  A    between atoms: _318  and  _320
REMARK  133  A    between atoms: _320  and  _321
REMARK  134  A    between atoms: _320  and  _323
REMARK  135  A    between atoms: _323  and  _324
REMARK  136  A    between atoms: _327  and  _329
REMARK  137  A    between atoms: _329  and  _330
REMARK  138  A    between atoms: _329  and  _332
REMARK  139  A    between atoms: _332  and  _333
REMARK  140  A    between atoms: _336  and  _338
REMARK  141  A    between atoms: _338  and  _339
REMARK  142  A    between atoms: _341  and  _343
REMARK  143  A    between atoms: _343  and  _344
REMARK  144  A    between atoms: _347  and  _349
REMARK  145  A    between atoms: _349  and  _350
REMARK  146  A    between atoms: _349  and  _352
REMARK  147  A    between atoms: _352  and  _353
REMARK  148  A    between atoms: _356  and  _358
REMARK  149  A    between atoms: _358  and  _359
REMARK  150  A    between atoms: _358  and  _361
REMARK  151  A    between atoms: _361  and  _362
REMARK  152  A    between atoms: _365  and  _367
REMARK  153  A    between atoms: _367  and  _368
REMARK  154  A    between atoms: _367  and  _370
REMARK  155  A    between atoms: _370  and  _371
REMARK  156  A    between atoms: _374  and  _376
REMARK  157  A    between atoms: _376  and  _377
REMARK  158  A    between atoms: _376  and  _379
REMARK  159  A    between atoms: _382  and  _384
REMARK  160  A    between atoms: _384  and  _385
REMARK  161  A    between atoms: _384  and  _387
REMARK  162  A    between atoms: _387  and  _388
REMARK  163  A    between atoms: _388  and  _389
REMARK  164  A    between atoms: _389  and  _390
REMARK  165  A    between atoms: _390  and  _391
REMARK  166  A    between atoms: _395  and  _397
REMARK  167  A    between atoms: _397  and  _398
REMARK  168  A    between atoms: _397  and  _400
REMARK  169  A    between atoms: _400  and  _401
REMARK  170  A    between atoms: _401  and  _402
REMARK  171  A    between atoms: _404  and  _406
REMARK  172  A    between atoms: _406  and  _407
REMARK  173  A    between atoms: _406  and  _409
REMARK  174  A    between atoms: _409  and  _410
REMARK  175  A    between atoms: _413  and  _415
REMARK  176  A    between atoms: _415  and  _416
REMARK  177  A    between atoms: _418  and  _420
REMARK  178  A    between atoms: _420  and  _421
REMARK  179  A    between atoms: _423  and  _425
REMARK  180  A    between atoms: _425  and  _426
REMARK  181  A    between atoms: _425  and  _428
REMARK  182  A    between atoms: _428  and  _429
REMARK  183  A    between atoms: _432  and  _434
REMARK  184  A    between atoms: _434  and  _435
REMARK  185  A    between atoms: _437  and  _439
REMARK  186  A    between atoms: _439  and  _440
REMARK  187  A    between atoms: _442  and  _444
REMARK  188  A    between atoms: _444  and  _445
REMARK  189  A    between atoms: _444  and  _447
REMARK  190  A    between atoms: _447  and  _448
REMARK  191  A    between atoms: _454  and  _456
REMARK  192  A    between atoms: _456  and  _457
REMARK  193  A    between atoms: _456  and  _459
REMARK  194  A    between atoms: _459  and  _460
REMARK  195  A    between atoms: _463  and  _465
REMARK  196  A    between atoms: _465  and  _466
REMARK  197  A    between atoms: _465  and  _468
REMARK  198  A    between atoms: _471  and  _473
REMARK  199  A    between atoms: _473  and  _474
REMARK  200  A    between atoms: _473  and  _476
REMARK  201  A    between atoms: _476  and  _477
REMARK  202  A    between atoms: _481  and  _482
REMARK  203  A    between atoms: _487  and  _489
REMARK  204  A    between atoms: _489  and  _490
REMARK  205  A    between atoms: _489  and  _492
REMARK  206  A    between atoms: _492  and  _493
REMARK  207  A    between atoms: _497  and  _498
REMARK  208  A    between atoms: _503  and  _505
REMARK  209  A    between atoms: _505  and  _506
REMARK  210  A    between atoms: _505  and  _508
REMARK  211  A    between atoms: _511  and  _513
REMARK  212  A    between atoms: _513  and  _514
REMARK  213  A    between atoms: _513  and  _516
REMARK  214  A    between atoms: _516  and  _517
REMARK  215  A    between atoms: _522  and  _524
REMARK  216  A    between atoms: _524  and  _525
REMARK  217  A    between atoms: _524  and  _527
REMARK  218  A    between atoms: _527  and  _528
REMARK  219  A    between atoms: _531  and  _533
REMARK  220  A    between atoms: _533  and  _534
REMARK  221  A    between atoms: _533  and  _536
REMARK  222  A    between atoms: _536  and  _537
REMARK  223  A    between atoms: _540  and  _542
REMARK  224  A    between atoms: _542  and  _543
REMARK  225  A    between atoms: _545  and  _547
REMARK  226  A    between atoms: _547  and  _548
REMARK  227  A    between atoms: _547  and  _550
REMARK  228  A    between atoms: _550  and  _551
REMARK  229  A    between atoms: _551  and  _552
REMARK  230  A    between atoms: _552  and  _553
REMARK  231  A    between atoms: _562  and  _564
REMARK  232  A    between atoms: _564  and  _565
REMARK  233  A    between atoms: _564  and  _567
REMARK  234  A    between atoms: _567  and  _568
REMARK                            x       y       z     vdW  Elec       q    Type
REMARK                         _______ _______ _______ _____ _____    ______ ____
ROOT
ATOM      1  O   HOH     1       3.535  11.754  15.012  0.00  0.00    +0.000 OA
ENDROOT
TORSDOF 0
REMARK  Name = ../refined-set-2016/3vfb/3vfb_pocket.pdb
REMARK  234 active torsions:
REMARK  status: ('A' for Active; 'I' for Inactive)
REMARK    1  A    between atoms: _1  and  _3
REMARK    2  A    between atoms: _3  and  _4
REMARK    3  A    between atoms: _3  and  _6
REMARK    4  A    between atoms: _6  and  _7
REMARK    5  A    between atoms: _7  and  _8
REMARK    6  A    between atoms: _8  and  _9
REMARK    7  A    between atoms: _18  and  _20
REMARK    8  A    between atoms: _20  and  _21
REMARK    9  A    between atoms: _20  and  _23
REMARK   10  A    between atoms: _23  and  _24
REMARK   11  A    between atoms: _27  and  _29
REMARK   12  A    between atoms: _29  and  _30
REMARK   13  A    between atoms: _29  and  _32
REMARK   14  A    between atoms: _32  and  _33
REMARK   15  A    between atoms: _36  and  _38
REMARK   16  A    between atoms: _38  and  _39
REMARK   17  A    between atoms: _38  and  _41
REMARK   18  A    between atoms: _41  and  _42
REMARK   19  A    between atoms: _45  and  _47
REMARK   20  A    between atoms: _47  and  _48
REMARK   21  A    between atoms: _47  and  _50
REMARK   22  A    between atoms: _50  and  _51
REMARK   23  A    between atoms: _54  and  _56
REMARK   24  A    between atoms: _56  and  _57
REMARK   25  A    between atoms: _56  and  _59
REMARK   26  A    between atoms: _59  and  _60
REMARK   27  A    between atoms: _63  and  _65
REMARK   28  A    between atoms: _65  and  _66
REMARK   29  A    between atoms: _68  and  _70
REMARK   30  A    between atoms: _70  and  _71
REMARK   31  A    between atoms: _74  and  _76
REMARK   32  A    between atoms: _76  and  _77
REMARK   33  A    between atoms: _76  and  _79
REMARK   34  A    between atoms: _79  and  _80
REMARK   35  A    between atoms: _83  and  _85
REMARK   36  A    between atoms: _85  and  _86
REMARK   37  A    between atoms: _85  and  _88
REMARK   38  A    between atoms: _88  and  _89
REMARK   39  A    between atoms: _92  and  _94
REMARK   40  A    between atoms: _94  and  _95
REMARK   41  A    between atoms: _94  and  _97
REMARK   42  A    between atoms: _97  and  _98
REMARK   43  A    between atoms: _101  and  _103
REMARK   44  A    between atoms: _103  and  _104
REMARK   45  A    between atoms: _103  and  _106
REMARK   46  A    between atoms: _109  and  _111
REMARK   47  A    between atoms: _111  and  _112
REMARK   48  A    between atoms: _111  and  _114
REMARK   49  A    between atoms: _114  and  _115
REMARK   50  A    between atoms: _115  and  _116
REMARK   51  A    between atoms: _116  and  _117
REMARK   52  A    between atoms: _117  and  _118
REMARK   53  A    between atoms: _122  and  _124
REMARK   54  A    between atoms: _124  and  _125
REMARK   55  A    between atoms: _124  and  _127
REMARK   56  A    between atoms: _127  and  _128
REMARK   57  A    between atoms: _128  and  _129
REMARK   58  A    between atoms: _131  and  _133
REMARK   59  A    between atoms: _133  and  _134
REMARK   60  A    between atoms: _133  and  _136
REMARK   61  A    between atoms: _136  and  _137
REMARK   62  A    between atoms: _140  and  _142
REMARK   63  A    between atoms: _142  and  _143
REMARK   64  A    between atoms: _145  and  _147
REMARK   65  A    between atoms: _147  and  _148
REMARK   66  A    between atoms: _150  and  _152
REMARK   67  A    between atoms: _152  and  _153
REMARK   68  A    between atoms: _152  and  _155
REMARK   69  A    between atoms: _155  and  _156
REMARK   70  A    between atoms: _159  and  _161
REMARK   71  A    between atoms: _161  and  _162
REMARK   72  A    between atoms: _164  and  _166
REMARK   73  A    between atoms: _166  and  _167
REMARK   74  A    between atoms: _169  and  _171
REMARK   75  A    between atoms: _171  and  _172
REMARK   76  A    between atoms: _171  and  _174
REMARK   77  A    between atoms: _174  and  _175
REMARK   78  A    between atoms: _181  and  _183
REMARK   79  A    between atoms: _183  and  _184
REMARK   80  A    between atoms: _183  and  _186
REMARK   81  A    between atoms: _186  and  _187
REMARK   82  A    between atoms: _190  and  _192
REMARK   83  A    between atoms: _192  and  _193
REMARK   84  A    between atoms: _192  and  _195
REMARK   85  A    between atoms: _195  and  _196
REMARK   86  A    between atoms: _199  and  _201
REMARK   87  A    between atoms: _201  and  _202
REMARK   88  A    between atoms: _201  and  _204
REMARK   89  A    between atoms: _204  and  _205
REMARK   90  A    between atoms: _209  and  _210
REMARK   91  A    between atoms: _215  and  _217
REMARK   92  A    between atoms: _217  and  _218
REMARK   93  A    between atoms: _217  and  _220
REMARK   94  A    between atoms: _223  and  _225
REMARK   95  A    between atoms: _225  and  _226
REMARK   96  A    between atoms: _225  and  _228
REMARK   97  A    between atoms: _228  and  _229
REMARK   98  A    between atoms: _234  and  _236
REMARK   99  A    between atoms: _236  and  _237
REMARK  100  A    between atoms: _236  and  _239
REMARK  101  A    between atoms: _239  and  _240
REMARK  102  A    between atoms: _243  and  _245
REMARK  103  A    between atoms: _245  and  _246
REMARK  104  A    between atoms: _245  and  _248
REMARK  105  A    between atoms: _248  and  _249
REMARK  106  A    between atoms: _252  and  _254
REMARK  107  A    between atoms: _254  and  _255
REMARK  108  A    between atoms: _257  and  _259
REMARK  109  A    between atoms: _259  and  _260
REMARK  110  A    between atoms: _259  and  _262
REMARK  111  A    between atoms: _262  and  _263
REMARK  112  A    between atoms: _263  and  _264
REMARK  113  A    between atoms: _264  and  _265
REMARK  114  A    between atoms: _274  and  _276
REMARK  115  A    between atoms: _276  and  _277
REMARK  116  A    between atoms: _276  and  _279
REMARK  117  A    between atoms: _279  and  _280
REMARK  118  A    between atoms: _283  and  _285
REMARK  119  A    between atoms: _285  and  _286
REMARK  120  A    between atoms: _285  and  _288
REMARK  121  A    between atoms: _288  and  _289
REMARK  122  A    between atoms: _289  and  _290
REMARK  123  A    between atoms: _290  and  _291
REMARK  124  A    between atoms: _300  and  _302
REMARK  125  A    between atoms: _302  and  _303
REMARK  126  A    between atoms: _302  and  _305
REMARK  127  A    between atoms: _305  and  _306
REMARK  128  A    between atoms: _309  and  _311
REMARK  129  A    between atoms: _311  and  _312
REMARK  130  A    between atoms: _311  and  _314
REMARK  131  A    between atoms: _314  and  _315
REMARK  132  A    between atoms: _318  and  _320
REMARK  133  A    between atoms: _320  and  _321
REMARK  134  A    between atoms: _320  and  _323
REMARK  135  A    between atoms: _323  and  _324
REMARK  136  A    between atoms: _327  and  _329
REMARK  137  A    between atoms: _329  and  _330
REMARK  138  A    between atoms: _329  and  _332
REMARK  139  A    between atoms: _332  and  _333
REMARK  140  A    between atoms: _336  and  _338
REMARK  141  A    between atoms: _338  and  _339
REMARK  142  A    between atoms: _341  and  _343
REMARK  143  A    between atoms: _343  and  _344
REMARK  144  A    between atoms: _347  and  _349
REMARK  145  A    between atoms: _349  and  _350
REMARK  146  A    between atoms: _349  and  _352
REMARK  147  A    between atoms: _352  and  _353
REMARK  148  A    between atoms: _356  and  _358
REMARK  149  A    between atoms: _358  and  _359
REMARK  150  A    between atoms: _358  and  _361
REMARK  151  A    between atoms: _361  and  _362
REMARK  152  A    between atoms: _365  and  _367
REMARK  153  A    between atoms: _367  and  _368
REMARK  154  A    between atoms: _367  and  _370
REMARK  155  A    between atoms: _370  and  _371
REMARK  156  A    between atoms: _374  and  _376
REMARK  157  A    between atoms: _376  and  _377
REMARK  158  A    between atoms: _376  and  _379
REMARK  159  A    between atoms: _382  and  _384
REMARK  160  A    between atoms: _384  and  _385
REMARK  161  A    between atoms: _384  and  _387
REMARK  162  A    between atoms: _387  and  _388
REMARK  163  A    between atoms: _388  and  _389
REMARK  164  A    between atoms: _389  and  _390
REMARK  165  A    between atoms: _390  and  _391
REMARK  166  A    between atoms: _395  and  _397
REMARK  167  A    between atoms: _397  and  _398
REMARK  168  A    between atoms: _397  and  _400
REMARK  169  A    between atoms: _400  and  _401
REMARK  170  A    between atoms: _401  and  _402
REMARK  171  A    between atoms: _404  and  _406
REMARK  172  A    between atoms: _406  and  _407
REMARK  173  A    between atoms: _406  and  _409
REMARK  174  A    between atoms: _409  and  _410
REMARK  175  A    between atoms: _413  and  _415
REMARK  176  A    between atoms: _415  and  _416
REMARK  177  A    between atoms: _418  and  _420
REMARK  178  A    between atoms: _420  and  _421
REMARK  179  A    between atoms: _423  and  _425
REMARK  180  A    between atoms: _425  and  _426
REMARK  181  A    between atoms: _425  and  _428
REMARK  182  A    between atoms: _428  and  _429
REMARK  183  A    between atoms: _432  and  _434
REMARK  184  A    between atoms: _434  and  _435
REMARK  185  A    between atoms: _437  and  _439
REMARK  186  A    between atoms: _439  and  _440
REMARK  187  A    between atoms: _442  and  _444
REMARK  188  A    between atoms: _444  and  _445
REMARK  189  A    between atoms: _444  and  _447
REMARK  190  A    between atoms: _447  and  _448
REMARK  191  A    between atoms: _454  and  _456
REMARK  192  A    between atoms: _456  and  _457
REMARK  193  A    between atoms: _456  and  _459
REMARK  194  A    between atoms: _459  and  _460
REMARK  195  A    between atoms: _463  and  _465
REMARK  196  A    between atoms: _465  and  _466
REMARK  197  A    between atoms: _465  and  _468
REMARK  198  A    between atoms: _471  and  _473
REMARK  199  A    between atoms: _473  and  _474
REMARK  200  A    between atoms: _473  and  _476
REMARK  201  A    between atoms: _476  and  _477
REMARK  202  A    between atoms: _481  and  _482
REMARK  203  A    between atoms: _487  and  _489
REMARK  204  A    between atoms: _489  and  _490
REMARK  205  A    between atoms: _489  and  _492
REMARK  206  A    between atoms: _492  and  _493
REMARK  207  A    between atoms: _497  and  _498
REMARK  208  A    between atoms: _503  and  _505
REMARK  209  A    between atoms: _505  and  _506
REMARK  210  A    between atoms: _505  and  _508
REMARK  211  A    between atoms: _511  and  _513
REMARK  212  A    between atoms: _513  and  _514
REMARK  213  A    between atoms: _513  and  _516
REMARK  214  A    between atoms: _516  and  _517
REMARK  215  A    between atoms: _522  and  _524
REMARK  216  A    between atoms: _524  and  _525
REMARK  217  A    between atoms: _524  and  _527
REMARK  218  A    between atoms: _527  and  _528
REMARK  219  A    between atoms: _531  and  _533
REMARK  220  A    between atoms: _533  and  _534
REMARK  221  A    between atoms: _533  and  _536
REMARK  222  A    between atoms: _536  and  _537
REMARK  223  A    between atoms: _540  and  _542
REMARK  224  A    between atoms: _542  and  _543
REMARK  225  A    between atoms: _545  and  _547
REMARK  226  A    between atoms: _547  and  _548
REMARK  227  A    between atoms: _547  and  _550
REMARK  228  A    between atoms: _550  and  _551
REMARK  229  A    between atoms: _551  and  _552
REMARK  230  A    between atoms: _552  and  _553
REMARK  231  A    between atoms: _562  and  _564
REMARK  232  A    between atoms: _564  and  _565
REMARK  233  A    between atoms: _564  and  _567
REMARK  234  A    between atoms: _567  and  _568
REMARK                            x       y       z     vdW  Elec       q    Type
REMARK                         _______ _______ _______ _____ _____    ______ ____
ROOT
ATOM      1  O   HOH     1       4.019  12.938  16.916  0.00  0.00    +0.000 OA
ENDROOT
TORSDOF 0
REMARK  Name = ../refined-set-2016/3vfb/3vfb_pocket.pdb
REMARK  234 active torsions:
REMARK  status: ('A' for Active; 'I' for Inactive)
REMARK    1  A    between atoms: _1  and  _3
REMARK    2  A    between atoms: _3  and  _4
REMARK    3  A    between atoms: _3  and  _6
REMARK    4  A    between atoms: _6  and  _7
REMARK    5  A    between atoms: _7  and  _8
REMARK    6  A    between atoms: _8  and  _9
REMARK    7  A    between atoms: _18  and  _20
REMARK    8  A    between atoms: _20  and  _21
REMARK    9  A    between atoms: _20  and  _23
REMARK   10  A    between atoms: _23  and  _24
REMARK   11  A    between atoms: _27  and  _29
REMARK   12  A    between atoms: _29  and  _30
REMARK   13  A    between atoms: _29  and  _32
REMARK   14  A    between atoms: _32  and  _33
REMARK   15  A    between atoms: _36  and  _38
REMARK   16  A    between atoms: _38  and  _39
REMARK   17  A    between atoms: _38  and  _41
REMARK   18  A    between atoms: _41  and  _42
REMARK   19  A    between atoms: _45  and  _47
REMARK   20  A    between atoms: _47  and  _48
REMARK   21  A    between atoms: _47  and  _50
REMARK   22  A    between atoms: _50  and  _51
REMARK   23  A    between atoms: _54  and  _56
REMARK   24  A    between atoms: _56  and  _57
REMARK   25  A    between atoms: _56  and  _59
REMARK   26  A    between atoms: _59  and  _60
REMARK   27  A    between atoms: _63  and  _65
REMARK   28  A    between atoms: _65  and  _66
REMARK   29  A    between atoms: _68  and  _70
REMARK   30  A    between atoms: _70  and  _71
REMARK   31  A    between atoms: _74  and  _76
REMARK   32  A    between atoms: _76  and  _77
REMARK   33  A    between atoms: _76  and  _79
REMARK   34  A    between atoms: _79  and  _80
REMARK   35  A    between atoms: _83  and  _85
REMARK   36  A    between atoms: _85  and  _86
REMARK   37  A    between atoms: _85  and  _88
REMARK   38  A    between atoms: _88  and  _89
REMARK   39  A    between atoms: _92  and  _94
REMARK   40  A    between atoms: _94  and  _95
REMARK   41  A    between atoms: _94  and  _97
REMARK   42  A    between atoms: _97  and  _98
REMARK   43  A    between atoms: _101  and  _103
REMARK   44  A    between atoms: _103  and  _104
REMARK   45  A    between atoms: _103  and  _106
REMARK   46  A    between atoms: _109  and  _111
REMARK   47  A    between atoms: _111  and  _112
REMARK   48  A    between atoms: _111  and  _114
REMARK   49  A    between atoms: _114  and  _115
REMARK   50  A    between atoms: _115  and  _116
REMARK   51  A    between atoms: _116  and  _117
REMARK   52  A    between atoms: _117  and  _118
REMARK   53  A    between atoms: _122  and  _124
REMARK   54  A    between atoms: _124  and  _125
REMARK   55  A    between atoms: _124  and  _127
REMARK   56  A    between atoms: _127  and  _128
REMARK   57  A    between atoms: _128  and  _129
REMARK   58  A    between atoms: _131  and  _133
REMARK   59  A    between atoms: _133  and  _134
REMARK   60  A    between atoms: _133  and  _136
REMARK   61  A    between atoms: _136  and  _137
REMARK   62  A    between atoms: _140  and  _142
REMARK   63  A    between atoms: _142  and  _143
REMARK   64  A    between atoms: _145  and  _147
REMARK   65  A    between atoms: _147  and  _148
REMARK   66  A    between atoms: _150  and  _152
REMARK   67  A    between atoms: _152  and  _153
REMARK   68  A    between atoms: _152  and  _155
REMARK   69  A    between atoms: _155  and  _156
REMARK   70  A    between atoms: _159  and  _161
REMARK   71  A    between atoms: _161  and  _162
REMARK   72  A    between atoms: _164  and  _166
REMARK   73  A    between atoms: _166  and  _167
REMARK   74  A    between atoms: _169  and  _171
REMARK   75  A    between atoms: _171  and  _172
REMARK   76  A    between atoms: _171  and  _174
REMARK   77  A    between atoms: _174  and  _175
REMARK   78  A    between atoms: _181  and  _183
REMARK   79  A    between atoms: _183  and  _184
REMARK   80  A    between atoms: _183  and  _186
REMARK   81  A    between atoms: _186  and  _187
REMARK   82  A    between atoms: _190  and  _192
REMARK   83  A    between atoms: _192  and  _193
REMARK   84  A    between atoms: _192  and  _195
REMARK   85  A    between atoms: _195  and  _196
REMARK   86  A    between atoms: _199  and  _201
REMARK   87  A    between atoms: _201  and  _202
REMARK   88  A    between atoms: _201  and  _204
REMARK   89  A    between atoms: _204  and  _205
REMARK   90  A    between atoms: _209  and  _210
REMARK   91  A    between atoms: _215  and  _217
REMARK   92  A    between atoms: _217  and  _218
REMARK   93  A    between atoms: _217  and  _220
REMARK   94  A    between atoms: _223  and  _225
REMARK   95  A    between atoms: _225  and  _226
REMARK   96  A    between atoms: _225  and  _228
REMARK   97  A    between atoms: _228  and  _229
REMARK   98  A    between atoms: _234  and  _236
REMARK   99  A    between atoms: _236  and  _237
REMARK  100  A    between atoms: _236  and  _239
REMARK  101  A    between atoms: _239  and  _240
REMARK  102  A    between atoms: _243  and  _245
REMARK  103  A    between atoms: _245  and  _246
REMARK  104  A    between atoms: _245  and  _248
REMARK  105  A    between atoms: _248  and  _249
REMARK  106  A    between atoms: _252  and  _254
REMARK  107  A    between atoms: _254  and  _255
REMARK  108  A    between atoms: _257  and  _259
REMARK  109  A    between atoms: _259  and  _260
REMARK  110  A    between atoms: _259  and  _262
REMARK  111  A    between atoms: _262  and  _263
REMARK  112  A    between atoms: _263  and  _264
REMARK  113  A    between atoms: _264  and  _265
REMARK  114  A    between atoms: _274  and  _276
REMARK  115  A    between atoms: _276  and  _277
REMARK  116  A    between atoms: _276  and  _279
REMARK  117  A    between atoms: _279  and  _280
REMARK  118  A    between atoms: _283  and  _285
REMARK  119  A    between atoms: _285  and  _286
REMARK  120  A    between atoms: _285  and  _288
REMARK  121  A    between atoms: _288  and  _289
REMARK  122  A    between atoms: _289  and  _290
REMARK  123  A    between atoms: _290  and  _291
REMARK  124  A    between atoms: _300  and  _302
REMARK  125  A    between atoms: _302  and  _303
REMARK  126  A    between atoms: _302  and  _305
REMARK  127  A    between atoms: _305  and  _306
REMARK  128  A    between atoms: _309  and  _311
REMARK  129  A    between atoms: _311  and  _312
REMARK  130  A    between atoms: _311  and  _314
REMARK  131  A    between atoms: _314  and  _315
REMARK  132  A    between atoms: _318  and  _320
REMARK  133  A    between atoms: _320  and  _321
REMARK  134  A    between atoms: _320  and  _323
REMARK  135  A    between atoms: _323  and  _324
REMARK  136  A    between atoms: _327  and  _329
REMARK  137  A    between atoms: _329  and  _330
REMARK  138  A    between atoms: _329  and  _332
REMARK  139  A    between atoms: _332  and  _333
REMARK  140  A    between atoms: _336  and  _338
REMARK  141  A    between atoms: _338  and  _339
REMARK  142  A    between atoms: _341  and  _343
REMARK  143  A    between atoms: _343  and  _344
REMARK  144  A    between atoms: _347  and  _349
REMARK  145  A    between atoms: _349  and  _350
REMARK  146  A    between atoms: _349  and  _352
REMARK  147  A    between atoms: _352  and  _353
REMARK  148  A    between atoms: _356  and  _358
REMARK  149  A    between atoms: _358  and  _359
REMARK  150  A    between atoms: _358  and  _361
REMARK  151  A    between atoms: _361  and  _362
REMARK  152  A    between atoms: _365  and  _367
REMARK  153  A    between atoms: _367  and  _368
REMARK  154  A    between atoms: _367  and  _370
REMARK  155  A    between atoms: _370  and  _371
REMARK  156  A    between atoms: _374  and  _376
REMARK  157  A    between atoms: _376  and  _377
REMARK  158  A    between atoms: _376  and  _379
REMARK  159  A    between atoms: _382  and  _384
REMARK  160  A    between atoms: _384  and  _385
REMARK  161  A    between atoms: _384  and  _387
REMARK  162  A    between atoms: _387  and  _388
REMARK  163  A    between atoms: _388  and  _389
REMARK  164  A    between atoms: _389  and  _390
REMARK  165  A    between atoms: _390  and  _391
REMARK  166  A    between atoms: _395  and  _397
REMARK  167  A    between atoms: _397  and  _398
REMARK  168  A    between atoms: _397  and  _400
REMARK  169  A    between atoms: _400  and  _401
REMARK  170  A    between atoms: _401  and  _402
REMARK  171  A    between atoms: _404  and  _406
REMARK  172  A    between atoms: _406  and  _407
REMARK  173  A    between atoms: _406  and  _409
REMARK  174  A    between atoms: _409  and  _410
REMARK  175  A    between atoms: _413  and  _415
REMARK  176  A    between atoms: _415  and  _416
REMARK  177  A    between atoms: _418  and  _420
REMARK  178  A    between atoms: _420  and  _421
REMARK  179  A    between atoms: _423  and  _425
REMARK  180  A    between atoms: _425  and  _426
REMARK  181  A    between atoms: _425  and  _428
REMARK  182  A    between atoms: _428  and  _429
REMARK  183  A    between atoms: _432  and  _434
REMARK  184  A    between atoms: _434  and  _435
REMARK  185  A    between atoms: _437  and  _439
REMARK  186  A    between atoms: _439  and  _440
REMARK  187  A    between atoms: _442  and  _444
REMARK  188  A    between atoms: _444  and  _445
REMARK  189  A    between atoms: _444  and  _447
REMARK  190  A    between atoms: _447  and  _448
REMARK  191  A    between atoms: _454  and  _456
REMARK  192  A    between atoms: _456  and  _457
REMARK  193  A    between atoms: _456  and  _459
REMARK  194  A    between atoms: _459  and  _460
REMARK  195  A    between atoms: _463  and  _465
REMARK  196  A    between atoms: _465  and  _466
REMARK  197  A    between atoms: _465  and  _468
REMARK  198  A    between atoms: _471  and  _473
REMARK  199  A    between atoms: _473  and  _474
REMARK  200  A    between atoms: _473  and  _476
REMARK  201  A    between atoms: _476  and  _477
REMARK  202  A    between atoms: _481  and  _482
REMARK  203  A    between atoms: _487  and  _489
REMARK  204  A    between atoms: _489  and  _490
REMARK  205  A    between atoms: _489  and  _492
REMARK  206  A    between atoms: _492  and  _493
REMARK  207  A    between atoms: _497  and  _498
REMARK  208  A    between atoms: _503  and  _505
REMARK  209  A    between atoms: _505  and  _506
REMARK  210  A    between atoms: _505  and  _508
REMARK  211  A    between atoms: _511  and  _513
REMARK  212  A    between atoms: _513  and  _514
REMARK  213  A    between atoms: _513  and  _516
REMARK  214  A    between atoms: _516  and  _517
REMARK  215  A    between atoms: _522  and  _524
REMARK  216  A    between atoms: _524  and  _525
REMARK  217  A    between atoms: _524  and  _527
REMARK  218  A    between atoms: _527  and  _528
REMARK  219  A    between atoms: _531  and  _533
REMARK  220  A    between atoms: _533  and  _534
REMARK  221  A    between atoms: _533  and  _536
REMARK  222  A    between atoms: _536  and  _537
REMARK  223  A    between atoms: _540  and  _542
REMARK  224  A    between atoms: _542  and  _543
REMARK  225  A    between atoms: _545  and  _547
REMARK  226  A    between atoms: _547  and  _548
REMARK  227  A    between atoms: _547  and  _550
REMARK  228  A    between atoms: _550  and  _551
REMARK  229  A    between atoms: _551  and  _552
REMARK  230  A    between atoms: _552  and  _553
REMARK  231  A    between atoms: _562  and  _564
REMARK  232  A    between atoms: _564  and  _565
REMARK  233  A    between atoms: _564  and  _567
REMARK  234  A    between atoms: _567  and  _568
REMARK                            x       y       z     vdW  Elec       q    Type
REMARK                         _______ _______ _______ _____ _____    ______ ____
ROOT
ATOM      1  O   HOH     1      11.279   7.901  12.396  0.00  0.00    +0.000 OA
ENDROOT
TORSDOF 0
REMARK  Name = ../refined-set-2016/3vfb/3vfb_pocket.pdb
REMARK  234 active torsions:
REMARK  status: ('A' for Active; 'I' for Inactive)
REMARK    1  A    between atoms: _1  and  _3
REMARK    2  A    between atoms: _3  and  _4
REMARK    3  A    between atoms: _3  and  _6
REMARK    4  A    between atoms: _6  and  _7
REMARK    5  A    between atoms: _7  and  _8
REMARK    6  A    between atoms: _8  and  _9
REMARK    7  A    between atoms: _18  and  _20
REMARK    8  A    between atoms: _20  and  _21
REMARK    9  A    between atoms: _20  and  _23
REMARK   10  A    between atoms: _23  and  _24
REMARK   11  A    between atoms: _27  and  _29
REMARK   12  A    between atoms: _29  and  _30
REMARK   13  A    between atoms: _29  and  _32
REMARK   14  A    between atoms: _32  and  _33
REMARK   15  A    between atoms: _36  and  _38
REMARK   16  A    between atoms: _38  and  _39
REMARK   17  A    between atoms: _38  and  _41
REMARK   18  A    between atoms: _41  and  _42
REMARK   19  A    between atoms: _45  and  _47
REMARK   20  A    between atoms: _47  and  _48
REMARK   21  A    between atoms: _47  and  _50
REMARK   22  A    between atoms: _50  and  _51
REMARK   23  A    between atoms: _54  and  _56
REMARK   24  A    between atoms: _56  and  _57
REMARK   25  A    between atoms: _56  and  _59
REMARK   26  A    between atoms: _59  and  _60
REMARK   27  A    between atoms: _63  and  _65
REMARK   28  A    between atoms: _65  and  _66
REMARK   29  A    between atoms: _68  and  _70
REMARK   30  A    between atoms: _70  and  _71
REMARK   31  A    between atoms: _74  and  _76
REMARK   32  A    between atoms: _76  and  _77
REMARK   33  A    between atoms: _76  and  _79
REMARK   34  A    between atoms: _79  and  _80
REMARK   35  A    between atoms: _83  and  _85
REMARK   36  A    between atoms: _85  and  _86
REMARK   37  A    between atoms: _85  and  _88
REMARK   38  A    between atoms: _88  and  _89
REMARK   39  A    between atoms: _92  and  _94
REMARK   40  A    between atoms: _94  and  _95
REMARK   41  A    between atoms: _94  and  _97
REMARK   42  A    between atoms: _97  and  _98
REMARK   43  A    between atoms: _101  and  _103
REMARK   44  A    between atoms: _103  and  _104
REMARK   45  A    between atoms: _103  and  _106
REMARK   46  A    between atoms: _109  and  _111
REMARK   47  A    between atoms: _111  and  _112
REMARK   48  A    between atoms: _111  and  _114
REMARK   49  A    between atoms: _114  and  _115
REMARK   50  A    between atoms: _115  and  _116
REMARK   51  A    between atoms: _116  and  _117
REMARK   52  A    between atoms: _117  and  _118
REMARK   53  A    between atoms: _122  and  _124
REMARK   54  A    between atoms: _124  and  _125
REMARK   55  A    between atoms: _124  and  _127
REMARK   56  A    between atoms: _127  and  _128
REMARK   57  A    between atoms: _128  and  _129
REMARK   58  A    between atoms: _131  and  _133
REMARK   59  A    between atoms: _133  and  _134
REMARK   60  A    between atoms: _133  and  _136
REMARK   61  A    between atoms: _136  and  _137
REMARK   62  A    between atoms: _140  and  _142
REMARK   63  A    between atoms: _142  and  _143
REMARK   64  A    between atoms: _145  and  _147
REMARK   65  A    between atoms: _147  and  _148
REMARK   66  A    between atoms: _150  and  _152
REMARK   67  A    between atoms: _152  and  _153
REMARK   68  A    between atoms: _152  and  _155
REMARK   69  A    between atoms: _155  and  _156
REMARK   70  A    between atoms: _159  and  _161
REMARK   71  A    between atoms: _161  and  _162
REMARK   72  A    between atoms: _164  and  _166
REMARK   73  A    between atoms: _166  and  _167
REMARK   74  A    between atoms: _169  and  _171
REMARK   75  A    between atoms: _171  and  _172
REMARK   76  A    between atoms: _171  and  _174
REMARK   77  A    between atoms: _174  and  _175
REMARK   78  A    between atoms: _181  and  _183
REMARK   79  A    between atoms: _183  and  _184
REMARK   80  A    between atoms: _183  and  _186
REMARK   81  A    between atoms: _186  and  _187
REMARK   82  A    between atoms: _190  and  _192
REMARK   83  A    between atoms: _192  and  _193
REMARK   84  A    between atoms: _192  and  _195
REMARK   85  A    between atoms: _195  and  _196
REMARK   86  A    between atoms: _199  and  _201
REMARK   87  A    between atoms: _201  and  _202
REMARK   88  A    between atoms: _201  and  _204
REMARK   89  A    between atoms: _204  and  _205
REMARK   90  A    between atoms: _209  and  _210
REMARK   91  A    between atoms: _215  and  _217
REMARK   92  A    between atoms: _217  and  _218
REMARK   93  A    between atoms: _217  and  _220
REMARK   94  A    between atoms: _223  and  _225
REMARK   95  A    between atoms: _225  and  _226
REMARK   96  A    between atoms: _225  and  _228
REMARK   97  A    between atoms: _228  and  _229
REMARK   98  A    between atoms: _234  and  _236
REMARK   99  A    between atoms: _236  and  _237
REMARK  100  A    between atoms: _236  and  _239
REMARK  101  A    between atoms: _239  and  _240
REMARK  102  A    between atoms: _243  and  _245
REMARK  103  A    between atoms: _245  and  _246
REMARK  104  A    between atoms: _245  and  _248
REMARK  105  A    between atoms: _248  and  _249
REMARK  106  A    between atoms: _252  and  _254
REMARK  107  A    between atoms: _254  and  _255
REMARK  108  A    between atoms: _257  and  _259
REMARK  109  A    between atoms: _259  and  _260
REMARK  110  A    between atoms: _259  and  _262
REMARK  111  A    between atoms: _262  and  _263
REMARK  112  A    between atoms: _263  and  _264
REMARK  113  A    between atoms: _264  and  _265
REMARK  114  A    between atoms: _274  and  _276
REMARK  115  A    between atoms: _276  and  _277
REMARK  116  A    between atoms: _276  and  _279
REMARK  117  A    between atoms: _279  and  _280
REMARK  118  A    between atoms: _283  and  _285
REMARK  119  A    between atoms: _285  and  _286
REMARK  120  A    between atoms: _285  and  _288
REMARK  121  A    between atoms: _288  and  _289
REMARK  122  A    between atoms: _289  and  _290
REMARK  123  A    between atoms: _290  and  _291
REMARK  124  A    between atoms: _300  and  _302
REMARK  125  A    between atoms: _302  and  _303
REMARK  126  A    between atoms: _302  and  _305
REMARK  127  A    between atoms: _305  and  _306
REMARK  128  A    between atoms: _309  and  _311
REMARK  129  A    between atoms: _311  and  _312
REMARK  130  A    between atoms: _311  and  _314
REMARK  131  A    between atoms: _314  and  _315
REMARK  132  A    between atoms: _318  and  _320
REMARK  133  A    between atoms: _320  and  _321
REMARK  134  A    between atoms: _320  and  _323
REMARK  135  A    between atoms: _323  and  _324
REMARK  136  A    between atoms: _327  and  _329
REMARK  137  A    between atoms: _329  and  _330
REMARK  138  A    between atoms: _329  and  _332
REMARK  139  A    between atoms: _332  and  _333
REMARK  140  A    between atoms: _336  and  _338
REMARK  141  A    between atoms: _338  and  _339
REMARK  142  A    between atoms: _341  and  _343
REMARK  143  A    between atoms: _343  and  _344
REMARK  144  A    between atoms: _347  and  _349
REMARK  145  A    between atoms: _349  and  _350
REMARK  146  A    between atoms: _349  and  _352
REMARK  147  A    between atoms: _352  and  _353
REMARK  148  A    between atoms: _356  and  _358
REMARK  149  A    between atoms: _358  and  _359
REMARK  150  A    between atoms: _358  and  _361
REMARK  151  A    between atoms: _361  and  _362
REMARK  152  A    between atoms: _365  and  _367
REMARK  153  A    between atoms: _367  and  _368
REMARK  154  A    between atoms: _367  and  _370
REMARK  155  A    between atoms: _370  and  _371
REMARK  156  A    between atoms: _374  and  _376
REMARK  157  A    between atoms: _376  and  _377
REMARK  158  A    between atoms: _376  and  _379
REMARK  159  A    between atoms: _382  and  _384
REMARK  160  A    between atoms: _384  and  _385
REMARK  161  A    between atoms: _384  and  _387
REMARK  162  A    between atoms: _387  and  _388
REMARK  163  A    between atoms: _388  and  _389
REMARK  164  A    between atoms: _389  and  _390
REMARK  165  A    between atoms: _390  and  _391
REMARK  166  A    between atoms: _395  and  _397
REMARK  167  A    between atoms: _397  and  _398
REMARK  168  A    between atoms: _397  and  _400
REMARK  169  A    between atoms: _400  and  _401
REMARK  170  A    between atoms: _401  and  _402
REMARK  171  A    between atoms: _404  and  _406
REMARK  172  A    between atoms: _406  and  _407
REMARK  173  A    between atoms: _406  and  _409
REMARK  174  A    between atoms: _409  and  _410
REMARK  175  A    between atoms: _413  and  _415
REMARK  176  A    between atoms: _415  and  _416
REMARK  177  A    between atoms: _418  and  _420
REMARK  178  A    between atoms: _420  and  _421
REMARK  179  A    between atoms: _423  and  _425
REMARK  180  A    between atoms: _425  and  _426
REMARK  181  A    between atoms: _425  and  _428
REMARK  182  A    between atoms: _428  and  _429
REMARK  183  A    between atoms: _432  and  _434
REMARK  184  A    between atoms: _434  and  _435
REMARK  185  A    between atoms: _437  and  _439
REMARK  186  A    between atoms: _439  and  _440
REMARK  187  A    between atoms: _442  and  _444
REMARK  188  A    between atoms: _444  and  _445
REMARK  189  A    between atoms: _444  and  _447
REMARK  190  A    between atoms: _447  and  _448
REMARK  191  A    between atoms: _454  and  _456
REMARK  192  A    between atoms: _456  and  _457
REMARK  193  A    between atoms: _456  and  _459
REMARK  194  A    between atoms: _459  and  _460
REMARK  195  A    between atoms: _463  and  _465
REMARK  196  A    between atoms: _465  and  _466
REMARK  197  A    between atoms: _465  and  _468
REMARK  198  A    between atoms: _471  and  _473
REMARK  199  A    between atoms: _473  and  _474
REMARK  200  A    between atoms: _473  and  _476
REMARK  201  A    between atoms: _476  and  _477
REMARK  202  A    between atoms: _481  and  _482
REMARK  203  A    between atoms: _487  and  _489
REMARK  204  A    between atoms: _489  and  _490
REMARK  205  A    between atoms: _489  and  _492
REMARK  206  A    between atoms: _492  and  _493
REMARK  207  A    between atoms: _497  and  _498
REMARK  208  A    between atoms: _503  and  _505
REMARK  209  A    between atoms: _505  and  _506
REMARK  210  A    between atoms: _505  and  _508
REMARK  211  A    between atoms: _511  and  _513
REMARK  212  A    between atoms: _513  and  _514
REMARK  213  A    between atoms: _513  and  _516
REMARK  214  A    between atoms: _516  and  _517
REMARK  215  A    between atoms: _522  and  _524
REMARK  216  A    between atoms: _524  and  _525
REMARK  217  A    between atoms: _524  and  _527
REMARK  218  A    between atoms: _527  and  _528
REMARK  219  A    between atoms: _531  and  _533
REMARK  220  A    between atoms: _533  and  _534
REMARK  221  A    between atoms: _533  and  _536
REMARK  222  A    between atoms: _536  and  _537
REMARK  223  A    between atoms: _540  and  _542
REMARK  224  A    between atoms: _542  and  _543
REMARK  225  A    between atoms: _545  and  _547
REMARK  226  A    between atoms: _547  and  _548
REMARK  227  A    between atoms: _547  and  _550
REMARK  228  A    between atoms: _550  and  _551
REMARK  229  A    between atoms: _551  and  _552
REMARK  230  A    between atoms: _552  and  _553
REMARK  231  A    between atoms: _562  and  _564
REMARK  232  A    between atoms: _564  and  _565
REMARK  233  A    between atoms: _564  and  _567
REMARK  234  A    between atoms: _567  and  _568
REMARK                            x       y       z     vdW  Elec       q    Type
REMARK                         _______ _______ _______ _____ _____    ______ ____
ROOT
ATOM      1  O   HOH     1       6.175   6.610  13.150  0.00  0.00    +0.000 OA
ENDROOT
TORSDOF 0
REMARK  Name = ../refined-set-2016/3vfb/3vfb_pocket.pdb
REMARK  234 active torsions:
REMARK  status: ('A' for Active; 'I' for Inactive)
REMARK    1  A    between atoms: _1  and  _3
REMARK    2  A    between atoms: _3  and  _4
REMARK    3  A    between atoms: _3  and  _6
REMARK    4  A    between atoms: _6  and  _7
REMARK    5  A    between atoms: _7  and  _8
REMARK    6  A    between atoms: _8  and  _9
REMARK    7  A    between atoms: _18  and  _20
REMARK    8  A    between atoms: _20  and  _21
REMARK    9  A    between atoms: _20  and  _23
REMARK   10  A    between atoms: _23  and  _24
REMARK   11  A    between atoms: _27  and  _29
REMARK   12  A    between atoms: _29  and  _30
REMARK   13  A    between atoms: _29  and  _32
REMARK   14  A    between atoms: _32  and  _33
REMARK   15  A    between atoms: _36  and  _38
REMARK   16  A    between atoms: _38  and  _39
REMARK   17  A    between atoms: _38  and  _41
REMARK   18  A    between atoms: _41  and  _42
REMARK   19  A    between atoms: _45  and  _47
REMARK   20  A    between atoms: _47  and  _48
REMARK   21  A    between atoms: _47  and  _50
REMARK   22  A    between atoms: _50  and  _51
REMARK   23  A    between atoms: _54  and  _56
REMARK   24  A    between atoms: _56  and  _57
REMARK   25  A    between atoms: _56  and  _59
REMARK   26  A    between atoms: _59  and  _60
REMARK   27  A    between atoms: _63  and  _65
REMARK   28  A    between atoms: _65  and  _66
REMARK   29  A    between atoms: _68  and  _70
REMARK   30  A    between atoms: _70  and  _71
REMARK   31  A    between atoms: _74  and  _76
REMARK   32  A    between atoms: _76  and  _77
REMARK   33  A    between atoms: _76  and  _79
REMARK   34  A    between atoms: _79  and  _80
REMARK   35  A    between atoms: _83  and  _85
REMARK   36  A    between atoms: _85  and  _86
REMARK   37  A    between atoms: _85  and  _88
REMARK   38  A    between atoms: _88  and  _89
REMARK   39  A    between atoms: _92  and  _94
REMARK   40  A    between atoms: _94  and  _95
REMARK   41  A    between atoms: _94  and  _97
REMARK   42  A    between atoms: _97  and  _98
REMARK   43  A    between atoms: _101  and  _103
REMARK   44  A    between atoms: _103  and  _104
REMARK   45  A    between atoms: _103  and  _106
REMARK   46  A    between atoms: _109  and  _111
REMARK   47  A    between atoms: _111  and  _112
REMARK   48  A    between atoms: _111  and  _114
REMARK   49  A    between atoms: _114  and  _115
REMARK   50  A    between atoms: _115  and  _116
REMARK   51  A    between atoms: _116  and  _117
REMARK   52  A    between atoms: _117  and  _118
REMARK   53  A    between atoms: _122  and  _124
REMARK   54  A    between atoms: _124  and  _125
REMARK   55  A    between atoms: _124  and  _127
REMARK   56  A    between atoms: _127  and  _128
REMARK   57  A    between atoms: _128  and  _129
REMARK   58  A    between atoms: _131  and  _133
REMARK   59  A    between atoms: _133  and  _134
REMARK   60  A    between atoms: _133  and  _136
REMARK   61  A    between atoms: _136  and  _137
REMARK   62  A    between atoms: _140  and  _142
REMARK   63  A    between atoms: _142  and  _143
REMARK   64  A    between atoms: _145  and  _147
REMARK   65  A    between atoms: _147  and  _148
REMARK   66  A    between atoms: _150  and  _152
REMARK   67  A    between atoms: _152  and  _153
REMARK   68  A    between atoms: _152  and  _155
REMARK   69  A    between atoms: _155  and  _156
REMARK   70  A    between atoms: _159  and  _161
REMARK   71  A    between atoms: _161  and  _162
REMARK   72  A    between atoms: _164  and  _166
REMARK   73  A    between atoms: _166  and  _167
REMARK   74  A    between atoms: _169  and  _171
REMARK   75  A    between atoms: _171  and  _172
REMARK   76  A    between atoms: _171  and  _174
REMARK   77  A    between atoms: _174  and  _175
REMARK   78  A    between atoms: _181  and  _183
REMARK   79  A    between atoms: _183  and  _184
REMARK   80  A    between atoms: _183  and  _186
REMARK   81  A    between atoms: _186  and  _187
REMARK   82  A    between atoms: _190  and  _192
REMARK   83  A    between atoms: _192  and  _193
REMARK   84  A    between atoms: _192  and  _195
REMARK   85  A    between atoms: _195  and  _196
REMARK   86  A    between atoms: _199  and  _201
REMARK   87  A    between atoms: _201  and  _202
REMARK   88  A    between atoms: _201  and  _204
REMARK   89  A    between atoms: _204  and  _205
REMARK   90  A    between atoms: _209  and  _210
REMARK   91  A    between atoms: _215  and  _217
REMARK   92  A    between atoms: _217  and  _218
REMARK   93  A    between atoms: _217  and  _220
REMARK   94  A    between atoms: _223  and  _225
REMARK   95  A    between atoms: _225  and  _226
REMARK   96  A    between atoms: _225  and  _228
REMARK   97  A    between atoms: _228  and  _229
REMARK   98  A    between atoms: _234  and  _236
REMARK   99  A    between atoms: _236  and  _237
REMARK  100  A    between atoms: _236  and  _239
REMARK  101  A    between atoms: _239  and  _240
REMARK  102  A    between atoms: _243  and  _245
REMARK  103  A    between atoms: _245  and  _246
REMARK  104  A    between atoms: _245  and  _248
REMARK  105  A    between atoms: _248  and  _249
REMARK  106  A    between atoms: _252  and  _254
REMARK  107  A    between atoms: _254  and  _255
REMARK  108  A    between atoms: _257  and  _259
REMARK  109  A    between atoms: _259  and  _260
REMARK  110  A    between atoms: _259  and  _262
REMARK  111  A    between atoms: _262  and  _263
REMARK  112  A    between atoms: _263  and  _264
REMARK  113  A    between atoms: _264  and  _265
REMARK  114  A    between atoms: _274  and  _276
REMARK  115  A    between atoms: _276  and  _277
REMARK  116  A    between atoms: _276  and  _279
REMARK  117  A    between atoms: _279  and  _280
REMARK  118  A    between atoms: _283  and  _285
REMARK  119  A    between atoms: _285  and  _286
REMARK  120  A    between atoms: _285  and  _288
REMARK  121  A    between atoms: _288  and  _289
REMARK  122  A    between atoms: _289  and  _290
REMARK  123  A    between atoms: _290  and  _291
REMARK  124  A    between atoms: _300  and  _302
REMARK  125  A    between atoms: _302  and  _303
REMARK  126  A    between atoms: _302  and  _305
REMARK  127  A    between atoms: _305  and  _306
REMARK  128  A    between atoms: _309  and  _311
REMARK  129  A    between atoms: _311  and  _312
REMARK  130  A    between atoms: _311  and  _314
REMARK  131  A    between atoms: _314  and  _315
REMARK  132  A    between atoms: _318  and  _320
REMARK  133  A    between atoms: _320  and  _321
REMARK  134  A    between atoms: _320  and  _323
REMARK  135  A    between atoms: _323  and  _324
REMARK  136  A    between atoms: _327  and  _329
REMARK  137  A    between atoms: _329  and  _330
REMARK  138  A    between atoms: _329  and  _332
REMARK  139  A    between atoms: _332  and  _333
REMARK  140  A    between atoms: _336  and  _338
REMARK  141  A    between atoms: _338  and  _339
REMARK  142  A    between atoms: _341  and  _343
REMARK  143  A    between atoms: _343  and  _344
REMARK  144  A    between atoms: _347  and  _349
REMARK  145  A    between atoms: _349  and  _350
REMARK  146  A    between atoms: _349  and  _352
REMARK  147  A    between atoms: _352  and  _353
REMARK  148  A    between atoms: _356  and  _358
REMARK  149  A    between atoms: _358  and  _359
REMARK  150  A    between atoms: _358  and  _361
REMARK  151  A    between atoms: _361  and  _362
REMARK  152  A    between atoms: _365  and  _367
REMARK  153  A    between atoms: _367  and  _368
REMARK  154  A    between atoms: _367  and  _370
REMARK  155  A    between atoms: _370  and  _371
REMARK  156  A    between atoms: _374  and  _376
REMARK  157  A    between atoms: _376  and  _377
REMARK  158  A    between atoms: _376  and  _379
REMARK  159  A    between atoms: _382  and  _384
REMARK  160  A    between atoms: _384  and  _385
REMARK  161  A    between atoms: _384  and  _387
REMARK  162  A    between atoms: _387  and  _388
REMARK  163  A    between atoms: _388  and  _389
REMARK  164  A    between atoms: _389  and  _390
REMARK  165  A    between atoms: _390  and  _391
REMARK  166  A    between atoms: _395  and  _397
REMARK  167  A    between atoms: _397  and  _398
REMARK  168  A    between atoms: _397  and  _400
REMARK  169  A    between atoms: _400  and  _401
REMARK  170  A    between atoms: _401  and  _402
REMARK  171  A    between atoms: _404  and  _406
REMARK  172  A    between atoms: _406  and  _407
REMARK  173  A    between atoms: _406  and  _409
REMARK  174  A    between atoms: _409  and  _410
REMARK  175  A    between atoms: _413  and  _415
REMARK  176  A    between atoms: _415  and  _416
REMARK  177  A    between atoms: _418  and  _420
REMARK  178  A    between atoms: _420  and  _421
REMARK  179  A    between atoms: _423  and  _425
REMARK  180  A    between atoms: _425  and  _426
REMARK  181  A    between atoms: _425  and  _428
REMARK  182  A    between atoms: _428  and  _429
REMARK  183  A    between atoms: _432  and  _434
REMARK  184  A    between atoms: _434  and  _435
REMARK  185  A    between atoms: _437  and  _439
REMARK  186  A    between atoms: _439  and  _440
REMARK  187  A    between atoms: _442  and  _444
REMARK  188  A    between atoms: _444  and  _445
REMARK  189  A    between atoms: _444  and  _447
REMARK  190  A    between atoms: _447  and  _448
REMARK  191  A    between atoms: _454  and  _456
REMARK  192  A    between atoms: _456  and  _457
REMARK  193  A    between atoms: _456  and  _459
REMARK  194  A    between atoms: _459  and  _460
REMARK  195  A    between atoms: _463  and  _465
REMARK  196  A    between atoms: _465  and  _466
REMARK  197  A    between atoms: _465  and  _468
REMARK  198  A    between atoms: _471  and  _473
REMARK  199  A    between atoms: _473  and  _474
REMARK  200  A    between atoms: _473  and  _476
REMARK  201  A    between atoms: _476  and  _477
REMARK  202  A    between atoms: _481  and  _482
REMARK  203  A    between atoms: _487  and  _489
REMARK  204  A    between atoms: _489  and  _490
REMARK  205  A    between atoms: _489  and  _492
REMARK  206  A    between atoms: _492  and  _493
REMARK  207  A    between atoms: _497  and  _498
REMARK  208  A    between atoms: _503  and  _505
REMARK  209  A    between atoms: _505  and  _506
REMARK  210  A    between atoms: _505  and  _508
REMARK  211  A    between atoms: _511  and  _513
REMARK  212  A    between atoms: _513  and  _514
REMARK  213  A    between atoms: _513  and  _516
REMARK  214  A    between atoms: _516  and  _517
REMARK  215  A    between atoms: _522  and  _524
REMARK  216  A    between atoms: _524  and  _525
REMARK  217  A    between atoms: _524  and  _527
REMARK  218  A    between atoms: _527  and  _528
REMARK  219  A    between atoms: _531  and  _533
REMARK  220  A    between atoms: _533  and  _534
REMARK  221  A    between atoms: _533  and  _536
REMARK  222  A    between atoms: _536  and  _537
REMARK  223  A    between atoms: _540  and  _542
REMARK  224  A    between atoms: _542  and  _543
REMARK  225  A    between atoms: _545  and  _547
REMARK  226  A    between atoms: _547  and  _548
REMARK  227  A    between atoms: _547  and  _550
REMARK  228  A    between atoms: _550  and  _551
REMARK  229  A    between atoms: _551  and  _552
REMARK  230  A    between atoms: _552  and  _553
REMARK  231  A    between atoms: _562  and  _564
REMARK  232  A    between atoms: _564  and  _565
REMARK  233  A    between atoms: _564  and  _567
REMARK  234  A    between atoms: _567  and  _568
REMARK                            x       y       z     vdW  Elec       q    Type
REMARK                         _______ _______ _______ _____ _____    ______ ____
ROOT
ATOM      1  O   HOH     1       5.475   7.616  14.671  0.00  0.00    +0.000 OA
ENDROOT
TORSDOF 0
