REMARK  Name = ../refined-set-2016/4jss/4jss_pocket.pdb
REMARK  145 active torsions:
REMARK  status: ('A' for Active; 'I' for Inactive)
REMARK    1  A    between atoms: _1  and  _3
REMARK    2  A    between atoms: _3  and  _4
REMARK    3  A    between atoms: _3  and  _6
REMARK    4  A    between atoms: _6  and  _7
REMARK    5  A    between atoms: _17  and  _19
REMARK    6  A    between atoms: _19  and  _20
REMARK    7  A    between atoms: _19  and  _22
REMARK    8  A    between atoms: _22  and  _23
REMARK    9  A    between atoms: _28  and  _29
REMARK   10  A    between atoms: _31  and  _33
REMARK   11  A    between atoms: _33  and  _34
REMARK   12  A    between atoms: _33  and  _36
REMARK   13  A    between atoms: _36  and  _37
REMARK   14  A    between atoms: _42  and  _44
REMARK   15  A    between atoms: _44  and  _45
REMARK   16  A    between atoms: _44  and  _47
REMARK   17  A    between atoms: _47  and  _48
REMARK   18  A    between atoms: _53  and  _55
REMARK   19  A    between atoms: _55  and  _56
REMARK   20  A    between atoms: _59  and  _61
REMARK   21  A    between atoms: _61  and  _62
REMARK   22  A    between atoms: _61  and  _64
REMARK   23  A    between atoms: _64  and  _65
REMARK   24  A    between atoms: _71  and  _73
REMARK   25  A    between atoms: _73  and  _74
REMARK   26  A    between atoms: _73  and  _76
REMARK   27  A    between atoms: _76  and  _77
REMARK   28  A    between atoms: _82  and  _84
REMARK   29  A    between atoms: _84  and  _85
REMARK   30  A    between atoms: _84  and  _87
REMARK   31  A    between atoms: _87  and  _88
REMARK   32  A    between atoms: _91  and  _93
REMARK   33  A    between atoms: _93  and  _94
REMARK   34  A    between atoms: _93  and  _96
REMARK   35  A    between atoms: _96  and  _97
REMARK   36  A    between atoms: _97  and  _98
REMARK   37  A    between atoms: _103  and  _105
REMARK   38  A    between atoms: _105  and  _106
REMARK   39  A    between atoms: _105  and  _108
REMARK   40  A    between atoms: _108  and  _109
REMARK   41  A    between atoms: _115  and  _117
REMARK   42  A    between atoms: _117  and  _118
REMARK   43  A    between atoms: _117  and  _120
REMARK   44  A    between atoms: _120  and  _121
REMARK   45  A    between atoms: _121  and  _123
REMARK   46  A    between atoms: _123  and  ZN_380
REMARK   47  A    between atoms: _124  and  _126
REMARK   48  A    between atoms: _126  and  _127
REMARK   49  A    between atoms: _126  and  _129
REMARK   50  A    between atoms: _129  and  _130
REMARK   51  A    between atoms: _136  and  _138
REMARK   52  A    between atoms: _138  and  _139
REMARK   53  A    between atoms: _138  and  _141
REMARK   54  A    between atoms: _141  and  _142
REMARK   55  A    between atoms: _147  and  _149
REMARK   56  A    between atoms: _149  and  _150
REMARK   57  A    between atoms: _149  and  _152
REMARK   58  A    between atoms: _152  and  _153
REMARK   59  A    between atoms: _153  and  _154
REMARK   60  A    between atoms: _157  and  _159
REMARK   61  A    between atoms: _159  and  _160
REMARK   62  A    between atoms: _159  and  _162
REMARK   63  A    between atoms: _162  and  _163
REMARK   64  A    between atoms: _163  and  _164
REMARK   65  A    between atoms: _167  and  _169
REMARK   66  A    between atoms: _169  and  _170
REMARK   67  A    between atoms: _169  and  _172
REMARK   68  A    between atoms: _172  and  _173
REMARK   69  A    between atoms: _176  and  _178
REMARK   70  A    between atoms: _178  and  _179
REMARK   71  A    between atoms: _178  and  _181
REMARK   72  A    between atoms: _181  and  _182
REMARK   73  A    between atoms: _183  and  ZN_380
REMARK   74  A    between atoms: _187  and  _189
REMARK   75  A    between atoms: _189  and  _190
REMARK   76  A    between atoms: _189  and  _192
REMARK   77  A    between atoms: _192  and  _193
REMARK   78  A    between atoms: _196  and  _198
REMARK   79  A    between atoms: _198  and  _199
REMARK   80  A    between atoms: _198  and  _201
REMARK   81  A    between atoms: _204  and  _206
REMARK   82  A    between atoms: _206  and  _207
REMARK   83  A    between atoms: _206  and  _209
REMARK   84  A    between atoms: _209  and  _210
REMARK   85  A    between atoms: _215  and  _217
REMARK   86  A    between atoms: _217  and  _218
REMARK   87  A    between atoms: _217  and  _220
REMARK   88  A    between atoms: _220  and  _221
REMARK   89  A    between atoms: _227  and  _229
REMARK   90  A    between atoms: _229  and  _230
REMARK   91  A    between atoms: _229  and  _232
REMARK   92  A    between atoms: _235  and  _237
REMARK   93  A    between atoms: _237  and  _238
REMARK   94  A    between atoms: _237  and  _240
REMARK   95  A    between atoms: _240  and  _241
REMARK   96  A    between atoms: _244  and  _246
REMARK   97  A    between atoms: _246  and  _247
REMARK   98  A    between atoms: _246  and  _249
REMARK   99  A    between atoms: _252  and  _254
REMARK  100  A    between atoms: _254  and  _255
REMARK  101  A    between atoms: _254  and  _257
REMARK  102  A    between atoms: _257  and  _258
REMARK  103  A    between atoms: _261  and  _263
REMARK  104  A    between atoms: _263  and  _264
REMARK  105  A    between atoms: _263  and  _266
REMARK  106  A    between atoms: _266  and  _267
REMARK  107  A    between atoms: _269  and  _271
REMARK  108  A    between atoms: _271  and  _272
REMARK  109  A    between atoms: _271  and  _274
REMARK  110  A    between atoms: _274  and  _275
REMARK  111  A    between atoms: _278  and  _280
REMARK  112  A    between atoms: _280  and  _281
REMARK  113  A    between atoms: _280  and  _283
REMARK  114  A    between atoms: _283  and  _284
REMARK  115  A    between atoms: _287  and  _289
REMARK  116  A    between atoms: _289  and  _290
REMARK  117  A    between atoms: _289  and  _292
REMARK  118  A    between atoms: _292  and  _293
REMARK  119  A    between atoms: _297  and  _298
REMARK  120  A    between atoms: _304  and  _305
REMARK  121  A    between atoms: _310  and  _312
REMARK  122  A    between atoms: _312  and  _313
REMARK  123  A    between atoms: _312  and  _315
REMARK  124  A    between atoms: _315  and  _316
REMARK  125  A    between atoms: _319  and  _321
REMARK  126  A    between atoms: _321  and  _322
REMARK  127  A    between atoms: _321  and  _324
REMARK  128  A    between atoms: _324  and  _325
REMARK  129  A    between atoms: _328  and  _330
REMARK  130  A    between atoms: _330  and  _331
REMARK  131  A    between atoms: _330  and  _333
REMARK  132  A    between atoms: _336  and  _338
REMARK  133  A    between atoms: _338  and  _339
REMARK  134  A    between atoms: _338  and  _341
REMARK  135  A    between atoms: _341  and  _342
REMARK  136  A    between atoms: _352  and  _354
REMARK  137  A    between atoms: _354  and  _355
REMARK  138  A    between atoms: _354  and  _357
REMARK  139  A    between atoms: _357  and  _358
REMARK  140  A    between atoms: _363  and  _365
REMARK  141  A    between atoms: _365  and  _366
REMARK  142  A    between atoms: _365  and  _368
REMARK  143  A    between atoms: _368  and  _369
REMARK  144  A    between atoms: _369  and  _370
REMARK  145  A    between atoms: _370  and  _371
REMARK                            x       y       z     vdW  Elec       q    Type
REMARK                         _______ _______ _______ _____ _____    ______ ____
ROOT
ATOM      1  CG  TRP A   1      26.137  -0.164  11.859  0.00  0.00    -0.002 A 
ATOM      2  CD2 TRP A   1      24.804  -0.719  11.914  0.00  0.00    +0.013 A 
ATOM      3  CE3 TRP A   1      24.280  -1.982  12.272  0.00  0.00    +0.001 A 
ATOM      4  CZ3 TRP A   1      22.882  -2.161  12.202  0.00  0.00    +0.000 A 
ATOM      5  CH2 TRP A   1      22.011  -1.078  11.930  0.00  0.00    +0.001 A 
ATOM      6  CZ2 TRP A   1      22.497   0.146  11.564  0.00  0.00    +0.017 A 
ATOM      7  CE2 TRP A   1      23.906   0.332  11.596  0.00  0.00    +0.056 A 
ATOM      8  NE1 TRP A   1      24.677   1.446  11.326  0.00  0.00    -0.352 N 
ATOM      9  HE1 TRP A   1      24.305   2.376  11.047  0.00  0.00    +0.166 HD
ATOM     10  CD1 TRP A   1      26.001   1.145  11.479  0.00  0.00    +0.068 A 
ENDROOT
BRANCH   1  11
ATOM     11  CB  TRP A   1      27.458  -0.898  12.170  0.00  0.00    +0.053 C 
BRANCH  11  12
ATOM     12  CA  TRP A   1      28.082  -1.599  10.955  0.00  0.00    +0.137 C 
BRANCH  12  13
ATOM     13  N   TRP A   1      28.596  -0.607  10.008  0.00  0.00    -0.239 NA
ATOM     14  H   TRP A   1      27.956  -0.009   9.446  0.00  0.00    +0.142 HD
ENDBRANCH  12  13
BRANCH  12  15
ATOM     15  C   TRP A   1      27.101  -2.545  10.287  0.00  0.00    +0.224 C 
ATOM     16  O   TRP A   1      26.483  -2.237   9.293  0.00  0.00    -0.287 OA
ENDBRANCH  12  15
ENDBRANCH  11  12
ENDBRANCH   1  11
TORSDOF 4
REMARK  Name = ../refined-set-2016/4jss/4jss_pocket.pdb
REMARK  145 active torsions:
REMARK  status: ('A' for Active; 'I' for Inactive)
REMARK    1  A    between atoms: _1  and  _3
REMARK    2  A    between atoms: _3  and  _4
REMARK    3  A    between atoms: _3  and  _6
REMARK    4  A    between atoms: _6  and  _7
REMARK    5  A    between atoms: _17  and  _19
REMARK    6  A    between atoms: _19  and  _20
REMARK    7  A    between atoms: _19  and  _22
REMARK    8  A    between atoms: _22  and  _23
REMARK    9  A    between atoms: _28  and  _29
REMARK   10  A    between atoms: _31  and  _33
REMARK   11  A    between atoms: _33  and  _34
REMARK   12  A    between atoms: _33  and  _36
REMARK   13  A    between atoms: _36  and  _37
REMARK   14  A    between atoms: _42  and  _44
REMARK   15  A    between atoms: _44  and  _45
REMARK   16  A    between atoms: _44  and  _47
REMARK   17  A    between atoms: _47  and  _48
REMARK   18  A    between atoms: _53  and  _55
REMARK   19  A    between atoms: _55  and  _56
REMARK   20  A    between atoms: _59  and  _61
REMARK   21  A    between atoms: _61  and  _62
REMARK   22  A    between atoms: _61  and  _64
REMARK   23  A    between atoms: _64  and  _65
REMARK   24  A    between atoms: _71  and  _73
REMARK   25  A    between atoms: _73  and  _74
REMARK   26  A    between atoms: _73  and  _76
REMARK   27  A    between atoms: _76  and  _77
REMARK   28  A    between atoms: _82  and  _84
REMARK   29  A    between atoms: _84  and  _85
REMARK   30  A    between atoms: _84  and  _87
REMARK   31  A    between atoms: _87  and  _88
REMARK   32  A    between atoms: _91  and  _93
REMARK   33  A    between atoms: _93  and  _94
REMARK   34  A    between atoms: _93  and  _96
REMARK   35  A    between atoms: _96  and  _97
REMARK   36  A    between atoms: _97  and  _98
REMARK   37  A    between atoms: _103  and  _105
REMARK   38  A    between atoms: _105  and  _106
REMARK   39  A    between atoms: _105  and  _108
REMARK   40  A    between atoms: _108  and  _109
REMARK   41  A    between atoms: _115  and  _117
REMARK   42  A    between atoms: _117  and  _118
REMARK   43  A    between atoms: _117  and  _120
REMARK   44  A    between atoms: _120  and  _121
REMARK   45  A    between atoms: _121  and  _123
REMARK   46  A    between atoms: _123  and  ZN_380
REMARK   47  A    between atoms: _124  and  _126
REMARK   48  A    between atoms: _126  and  _127
REMARK   49  A    between atoms: _126  and  _129
REMARK   50  A    between atoms: _129  and  _130
REMARK   51  A    between atoms: _136  and  _138
REMARK   52  A    between atoms: _138  and  _139
REMARK   53  A    between atoms: _138  and  _141
REMARK   54  A    between atoms: _141  and  _142
REMARK   55  A    between atoms: _147  and  _149
REMARK   56  A    between atoms: _149  and  _150
REMARK   57  A    between atoms: _149  and  _152
REMARK   58  A    between atoms: _152  and  _153
REMARK   59  A    between atoms: _153  and  _154
REMARK   60  A    between atoms: _157  and  _159
REMARK   61  A    between atoms: _159  and  _160
REMARK   62  A    between atoms: _159  and  _162
REMARK   63  A    between atoms: _162  and  _163
REMARK   64  A    between atoms: _163  and  _164
REMARK   65  A    between atoms: _167  and  _169
REMARK   66  A    between atoms: _169  and  _170
REMARK   67  A    between atoms: _169  and  _172
REMARK   68  A    between atoms: _172  and  _173
REMARK   69  A    between atoms: _176  and  _178
REMARK   70  A    between atoms: _178  and  _179
REMARK   71  A    between atoms: _178  and  _181
REMARK   72  A    between atoms: _181  and  _182
REMARK   73  A    between atoms: _183  and  ZN_380
REMARK   74  A    between atoms: _187  and  _189
REMARK   75  A    between atoms: _189  and  _190
REMARK   76  A    between atoms: _189  and  _192
REMARK   77  A    between atoms: _192  and  _193
REMARK   78  A    between atoms: _196  and  _198
REMARK   79  A    between atoms: _198  and  _199
REMARK   80  A    between atoms: _198  and  _201
REMARK   81  A    between atoms: _204  and  _206
REMARK   82  A    between atoms: _206  and  _207
REMARK   83  A    between atoms: _206  and  _209
REMARK   84  A    between atoms: _209  and  _210
REMARK   85  A    between atoms: _215  and  _217
REMARK   86  A    between atoms: _217  and  _218
REMARK   87  A    between atoms: _217  and  _220
REMARK   88  A    between atoms: _220  and  _221
REMARK   89  A    between atoms: _227  and  _229
REMARK   90  A    between atoms: _229  and  _230
REMARK   91  A    between atoms: _229  and  _232
REMARK   92  A    between atoms: _235  and  _237
REMARK   93  A    between atoms: _237  and  _238
REMARK   94  A    between atoms: _237  and  _240
REMARK   95  A    between atoms: _240  and  _241
REMARK   96  A    between atoms: _244  and  _246
REMARK   97  A    between atoms: _246  and  _247
REMARK   98  A    between atoms: _246  and  _249
REMARK   99  A    between atoms: _252  and  _254
REMARK  100  A    between atoms: _254  and  _255
REMARK  101  A    between atoms: _254  and  _257
REMARK  102  A    between atoms: _257  and  _258
REMARK  103  A    between atoms: _261  and  _263
REMARK  104  A    between atoms: _263  and  _264
REMARK  105  A    between atoms: _263  and  _266
REMARK  106  A    between atoms: _266  and  _267
REMARK  107  A    between atoms: _269  and  _271
REMARK  108  A    between atoms: _271  and  _272
REMARK  109  A    between atoms: _271  and  _274
REMARK  110  A    between atoms: _274  and  _275
REMARK  111  A    between atoms: _278  and  _280
REMARK  112  A    between atoms: _280  and  _281
REMARK  113  A    between atoms: _280  and  _283
REMARK  114  A    between atoms: _283  and  _284
REMARK  115  A    between atoms: _287  and  _289
REMARK  116  A    between atoms: _289  and  _290
REMARK  117  A    between atoms: _289  and  _292
REMARK  118  A    between atoms: _292  and  _293
REMARK  119  A    between atoms: _297  and  _298
REMARK  120  A    between atoms: _304  and  _305
REMARK  121  A    between atoms: _310  and  _312
REMARK  122  A    between atoms: _312  and  _313
REMARK  123  A    between atoms: _312  and  _315
REMARK  124  A    between atoms: _315  and  _316
REMARK  125  A    between atoms: _319  and  _321
REMARK  126  A    between atoms: _321  and  _322
REMARK  127  A    between atoms: _321  and  _324
REMARK  128  A    between atoms: _324  and  _325
REMARK  129  A    between atoms: _328  and  _330
REMARK  130  A    between atoms: _330  and  _331
REMARK  131  A    between atoms: _330  and  _333
REMARK  132  A    between atoms: _336  and  _338
REMARK  133  A    between atoms: _338  and  _339
REMARK  134  A    between atoms: _338  and  _341
REMARK  135  A    between atoms: _341  and  _342
REMARK  136  A    between atoms: _352  and  _354
REMARK  137  A    between atoms: _354  and  _355
REMARK  138  A    between atoms: _354  and  _357
REMARK  139  A    between atoms: _357  and  _358
REMARK  140  A    between atoms: _363  and  _365
REMARK  141  A    between atoms: _365  and  _366
REMARK  142  A    between atoms: _365  and  _368
REMARK  143  A    between atoms: _368  and  _369
REMARK  144  A    between atoms: _369  and  _370
REMARK  145  A    between atoms: _370  and  _371
REMARK                            x       y       z     vdW  Elec       q    Type
REMARK                         _______ _______ _______ _____ _____    ______ ____
ROOT
ATOM      1  CG  TYR A   1      22.689  -7.338  11.986  0.00  0.00    -0.020 A 
ATOM      2  CD2 TYR A   1      22.329  -7.249  13.348  0.00  0.00    -0.001 A 
ATOM      3  CE2 TYR A   1      21.485  -6.248  13.795  0.00  0.00    +0.036 A 
ATOM      4  CZ  TYR A   1      20.916  -5.329  12.914  0.00  0.00    +0.134 A 
ATOM      5  CE1 TYR A   1      21.290  -5.368  11.559  0.00  0.00    +0.036 A 
ATOM      6  CD1 TYR A   1      22.142  -6.383  11.136  0.00  0.00    -0.001 A 
ENDROOT
BRANCH   4   7
ATOM      7  OH  TYR A   1      20.077  -4.318  13.208  0.00  0.00    -0.506 OA
ATOM      8  HH  TYR A   1      19.853  -4.346  14.172  0.00  0.00    +0.292 HD
ENDBRANCH   4   7
BRANCH   1   9
ATOM      9  CB  TYR A   1      23.619  -8.444  11.506  0.00  0.00    +0.051 C 
BRANCH   9  10
ATOM     10  CA  TYR A   1      25.059  -8.105  11.747  0.00  0.00    +0.137 C 
BRANCH  10  11
ATOM     11  N   TYR A   1      25.431  -6.978  10.861  0.00  0.00    -0.239 NA
ATOM     12  H   TYR A   1      25.415  -7.111   9.830  0.00  0.00    +0.142 HD
ENDBRANCH  10  11
BRANCH  10  13
ATOM     13  C   TYR A   1      25.947  -9.346  11.553  0.00  0.00    +0.224 C 
ATOM     14  O   TYR A   1      25.747 -10.397  12.184  0.00  0.00    -0.287 OA
ENDBRANCH  10  13
ENDBRANCH   9  10
ENDBRANCH   1   9
TORSDOF 5
REMARK  Name = ../refined-set-2016/4jss/4jss_pocket.pdb
REMARK  145 active torsions:
REMARK  status: ('A' for Active; 'I' for Inactive)
REMARK    1  A    between atoms: _1  and  _3
REMARK    2  A    between atoms: _3  and  _4
REMARK    3  A    between atoms: _3  and  _6
REMARK    4  A    between atoms: _6  and  _7
REMARK    5  A    between atoms: _17  and  _19
REMARK    6  A    between atoms: _19  and  _20
REMARK    7  A    between atoms: _19  and  _22
REMARK    8  A    between atoms: _22  and  _23
REMARK    9  A    between atoms: _28  and  _29
REMARK   10  A    between atoms: _31  and  _33
REMARK   11  A    between atoms: _33  and  _34
REMARK   12  A    between atoms: _33  and  _36
REMARK   13  A    between atoms: _36  and  _37
REMARK   14  A    between atoms: _42  and  _44
REMARK   15  A    between atoms: _44  and  _45
REMARK   16  A    between atoms: _44  and  _47
REMARK   17  A    between atoms: _47  and  _48
REMARK   18  A    between atoms: _53  and  _55
REMARK   19  A    between atoms: _55  and  _56
REMARK   20  A    between atoms: _59  and  _61
REMARK   21  A    between atoms: _61  and  _62
REMARK   22  A    between atoms: _61  and  _64
REMARK   23  A    between atoms: _64  and  _65
REMARK   24  A    between atoms: _71  and  _73
REMARK   25  A    between atoms: _73  and  _74
REMARK   26  A    between atoms: _73  and  _76
REMARK   27  A    between atoms: _76  and  _77
REMARK   28  A    between atoms: _82  and  _84
REMARK   29  A    between atoms: _84  and  _85
REMARK   30  A    between atoms: _84  and  _87
REMARK   31  A    between atoms: _87  and  _88
REMARK   32  A    between atoms: _91  and  _93
REMARK   33  A    between atoms: _93  and  _94
REMARK   34  A    between atoms: _93  and  _96
REMARK   35  A    between atoms: _96  and  _97
REMARK   36  A    between atoms: _97  and  _98
REMARK   37  A    between atoms: _103  and  _105
REMARK   38  A    between atoms: _105  and  _106
REMARK   39  A    between atoms: _105  and  _108
REMARK   40  A    between atoms: _108  and  _109
REMARK   41  A    between atoms: _115  and  _117
REMARK   42  A    between atoms: _117  and  _118
REMARK   43  A    between atoms: _117  and  _120
REMARK   44  A    between atoms: _120  and  _121
REMARK   45  A    between atoms: _121  and  _123
REMARK   46  A    between atoms: _123  and  ZN_380
REMARK   47  A    between atoms: _124  and  _126
REMARK   48  A    between atoms: _126  and  _127
REMARK   49  A    between atoms: _126  and  _129
REMARK   50  A    between atoms: _129  and  _130
REMARK   51  A    between atoms: _136  and  _138
REMARK   52  A    between atoms: _138  and  _139
REMARK   53  A    between atoms: _138  and  _141
REMARK   54  A    between atoms: _141  and  _142
REMARK   55  A    between atoms: _147  and  _149
REMARK   56  A    between atoms: _149  and  _150
REMARK   57  A    between atoms: _149  and  _152
REMARK   58  A    between atoms: _152  and  _153
REMARK   59  A    between atoms: _153  and  _154
REMARK   60  A    between atoms: _157  and  _159
REMARK   61  A    between atoms: _159  and  _160
REMARK   62  A    between atoms: _159  and  _162
REMARK   63  A    between atoms: _162  and  _163
REMARK   64  A    between atoms: _163  and  _164
REMARK   65  A    between atoms: _167  and  _169
REMARK   66  A    between atoms: _169  and  _170
REMARK   67  A    between atoms: _169  and  _172
REMARK   68  A    between atoms: _172  and  _173
REMARK   69  A    between atoms: _176  and  _178
REMARK   70  A    between atoms: _178  and  _179
REMARK   71  A    between atoms: _178  and  _181
REMARK   72  A    between atoms: _181  and  _182
REMARK   73  A    between atoms: _183  and  ZN_380
REMARK   74  A    between atoms: _187  and  _189
REMARK   75  A    between atoms: _189  and  _190
REMARK   76  A    between atoms: _189  and  _192
REMARK   77  A    between atoms: _192  and  _193
REMARK   78  A    between atoms: _196  and  _198
REMARK   79  A    between atoms: _198  and  _199
REMARK   80  A    between atoms: _198  and  _201
REMARK   81  A    between atoms: _204  and  _206
REMARK   82  A    between atoms: _206  and  _207
REMARK   83  A    between atoms: _206  and  _209
REMARK   84  A    between atoms: _209  and  _210
REMARK   85  A    between atoms: _215  and  _217
REMARK   86  A    between atoms: _217  and  _218
REMARK   87  A    between atoms: _217  and  _220
REMARK   88  A    between atoms: _220  and  _221
REMARK   89  A    between atoms: _227  and  _229
REMARK   90  A    between atoms: _229  and  _230
REMARK   91  A    between atoms: _229  and  _232
REMARK   92  A    between atoms: _235  and  _237
REMARK   93  A    between atoms: _237  and  _238
REMARK   94  A    between atoms: _237  and  _240
REMARK   95  A    between atoms: _240  and  _241
REMARK   96  A    between atoms: _244  and  _246
REMARK   97  A    between atoms: _246  and  _247
REMARK   98  A    between atoms: _246  and  _249
REMARK   99  A    between atoms: _252  and  _254
REMARK  100  A    between atoms: _254  and  _255
REMARK  101  A    between atoms: _254  and  _257
REMARK  102  A    between atoms: _257  and  _258
REMARK  103  A    between atoms: _261  and  _263
REMARK  104  A    between atoms: _263  and  _264
REMARK  105  A    between atoms: _263  and  _266
REMARK  106  A    between atoms: _266  and  _267
REMARK  107  A    between atoms: _269  and  _271
REMARK  108  A    between atoms: _271  and  _272
REMARK  109  A    between atoms: _271  and  _274
REMARK  110  A    between atoms: _274  and  _275
REMARK  111  A    between atoms: _278  and  _280
REMARK  112  A    between atoms: _280  and  _281
REMARK  113  A    between atoms: _280  and  _283
REMARK  114  A    between atoms: _283  and  _284
REMARK  115  A    between atoms: _287  and  _289
REMARK  116  A    between atoms: _289  and  _290
REMARK  117  A    between atoms: _289  and  _292
REMARK  118  A    between atoms: _292  and  _293
REMARK  119  A    between atoms: _297  and  _298
REMARK  120  A    between atoms: _304  and  _305
REMARK  121  A    between atoms: _310  and  _312
REMARK  122  A    between atoms: _312  and  _313
REMARK  123  A    between atoms: _312  and  _315
REMARK  124  A    between atoms: _315  and  _316
REMARK  125  A    between atoms: _319  and  _321
REMARK  126  A    between atoms: _321  and  _322
REMARK  127  A    between atoms: _321  and  _324
REMARK  128  A    between atoms: _324  and  _325
REMARK  129  A    between atoms: _328  and  _330
REMARK  130  A    between atoms: _330  and  _331
REMARK  131  A    between atoms: _330  and  _333
REMARK  132  A    between atoms: _336  and  _338
REMARK  133  A    between atoms: _338  and  _339
REMARK  134  A    between atoms: _338  and  _341
REMARK  135  A    between atoms: _341  and  _342
REMARK  136  A    between atoms: _352  and  _354
REMARK  137  A    between atoms: _354  and  _355
REMARK  138  A    between atoms: _354  and  _357
REMARK  139  A    between atoms: _357  and  _358
REMARK  140  A    between atoms: _363  and  _365
REMARK  141  A    between atoms: _365  and  _366
REMARK  142  A    between atoms: _365  and  _368
REMARK  143  A    between atoms: _368  and  _369
REMARK  144  A    between atoms: _369  and  _370
REMARK  145  A    between atoms: _370  and  _371
REMARK                            x       y       z     vdW  Elec       q    Type
REMARK                         _______ _______ _______ _____ _____    ______ ____
ROOT
ATOM      1  CB  ASN A   1      18.745   1.392   5.273  0.00  0.00    +0.110 C 
ENDROOT
BRANCH   1   2
ATOM      2  CG  ASN A   1      18.512   0.554   6.535  0.00  0.00    +0.221 C 
ATOM      3  ND2 ASN A   1      18.369   1.228   7.675  0.00  0.00    -0.329 N 
ATOM      4 HD21 ASN A   1      18.334   0.717   8.580  0.00  0.00    +0.145 HD
ATOM      5 HD22 ASN A   1      18.292   2.265   7.660  0.00  0.00    +0.145 HD
ATOM      6  OD1 ASN A   1      18.603  -0.646   6.522  0.00  0.00    -0.275 OA
ENDBRANCH   1   2
BRANCH   1   7
ATOM      7  CA  ASN A   1      19.045   0.513   4.056  0.00  0.00    +0.142 C 
BRANCH   7   8
ATOM      8  N   ASN A   1      17.815  -0.222   3.644  0.00  0.00    -0.239 NA
ATOM      9  H   ASN A   1      17.172  -0.604   4.366  0.00  0.00    +0.142 HD
ENDBRANCH   7   8
BRANCH   7  10
ATOM     10  C   ASN A   1      20.323  -0.323   4.253  0.00  0.00    +0.225 C 
ATOM     11  O   ASN A   1      21.320   0.132   4.855  0.00  0.00    -0.287 OA
ENDBRANCH   7  10
ENDBRANCH   1   7
TORSDOF 4
REMARK  Name = ../refined-set-2016/4jss/4jss_pocket.pdb
REMARK  145 active torsions:
REMARK  status: ('A' for Active; 'I' for Inactive)
REMARK    1  A    between atoms: _1  and  _3
REMARK    2  A    between atoms: _3  and  _4
REMARK    3  A    between atoms: _3  and  _6
REMARK    4  A    between atoms: _6  and  _7
REMARK    5  A    between atoms: _17  and  _19
REMARK    6  A    between atoms: _19  and  _20
REMARK    7  A    between atoms: _19  and  _22
REMARK    8  A    between atoms: _22  and  _23
REMARK    9  A    between atoms: _28  and  _29
REMARK   10  A    between atoms: _31  and  _33
REMARK   11  A    between atoms: _33  and  _34
REMARK   12  A    between atoms: _33  and  _36
REMARK   13  A    between atoms: _36  and  _37
REMARK   14  A    between atoms: _42  and  _44
REMARK   15  A    between atoms: _44  and  _45
REMARK   16  A    between atoms: _44  and  _47
REMARK   17  A    between atoms: _47  and  _48
REMARK   18  A    between atoms: _53  and  _55
REMARK   19  A    between atoms: _55  and  _56
REMARK   20  A    between atoms: _59  and  _61
REMARK   21  A    between atoms: _61  and  _62
REMARK   22  A    between atoms: _61  and  _64
REMARK   23  A    between atoms: _64  and  _65
REMARK   24  A    between atoms: _71  and  _73
REMARK   25  A    between atoms: _73  and  _74
REMARK   26  A    between atoms: _73  and  _76
REMARK   27  A    between atoms: _76  and  _77
REMARK   28  A    between atoms: _82  and  _84
REMARK   29  A    between atoms: _84  and  _85
REMARK   30  A    between atoms: _84  and  _87
REMARK   31  A    between atoms: _87  and  _88
REMARK   32  A    between atoms: _91  and  _93
REMARK   33  A    between atoms: _93  and  _94
REMARK   34  A    between atoms: _93  and  _96
REMARK   35  A    between atoms: _96  and  _97
REMARK   36  A    between atoms: _97  and  _98
REMARK   37  A    between atoms: _103  and  _105
REMARK   38  A    between atoms: _105  and  _106
REMARK   39  A    between atoms: _105  and  _108
REMARK   40  A    between atoms: _108  and  _109
REMARK   41  A    between atoms: _115  and  _117
REMARK   42  A    between atoms: _117  and  _118
REMARK   43  A    between atoms: _117  and  _120
REMARK   44  A    between atoms: _120  and  _121
REMARK   45  A    between atoms: _121  and  _123
REMARK   46  A    between atoms: _123  and  ZN_380
REMARK   47  A    between atoms: _124  and  _126
REMARK   48  A    between atoms: _126  and  _127
REMARK   49  A    between atoms: _126  and  _129
REMARK   50  A    between atoms: _129  and  _130
REMARK   51  A    between atoms: _136  and  _138
REMARK   52  A    between atoms: _138  and  _139
REMARK   53  A    between atoms: _138  and  _141
REMARK   54  A    between atoms: _141  and  _142
REMARK   55  A    between atoms: _147  and  _149
REMARK   56  A    between atoms: _149  and  _150
REMARK   57  A    between atoms: _149  and  _152
REMARK   58  A    between atoms: _152  and  _153
REMARK   59  A    between atoms: _153  and  _154
REMARK   60  A    between atoms: _157  and  _159
REMARK   61  A    between atoms: _159  and  _160
REMARK   62  A    between atoms: _159  and  _162
REMARK   63  A    between atoms: _162  and  _163
REMARK   64  A    between atoms: _163  and  _164
REMARK   65  A    between atoms: _167  and  _169
REMARK   66  A    between atoms: _169  and  _170
REMARK   67  A    between atoms: _169  and  _172
REMARK   68  A    between atoms: _172  and  _173
REMARK   69  A    between atoms: _176  and  _178
REMARK   70  A    between atoms: _178  and  _179
REMARK   71  A    between atoms: _178  and  _181
REMARK   72  A    between atoms: _181  and  _182
REMARK   73  A    between atoms: _183  and  ZN_380
REMARK   74  A    between atoms: _187  and  _189
REMARK   75  A    between atoms: _189  and  _190
REMARK   76  A    between atoms: _189  and  _192
REMARK   77  A    between atoms: _192  and  _193
REMARK   78  A    between atoms: _196  and  _198
REMARK   79  A    between atoms: _198  and  _199
REMARK   80  A    between atoms: _198  and  _201
REMARK   81  A    between atoms: _204  and  _206
REMARK   82  A    between atoms: _206  and  _207
REMARK   83  A    between atoms: _206  and  _209
REMARK   84  A    between atoms: _209  and  _210
REMARK   85  A    between atoms: _215  and  _217
REMARK   86  A    between atoms: _217  and  _218
REMARK   87  A    between atoms: _217  and  _220
REMARK   88  A    between atoms: _220  and  _221
REMARK   89  A    between atoms: _227  and  _229
REMARK   90  A    between atoms: _229  and  _230
REMARK   91  A    between atoms: _229  and  _232
REMARK   92  A    between atoms: _235  and  _237
REMARK   93  A    between atoms: _237  and  _238
REMARK   94  A    between atoms: _237  and  _240
REMARK   95  A    between atoms: _240  and  _241
REMARK   96  A    between atoms: _244  and  _246
REMARK   97  A    between atoms: _246  and  _247
REMARK   98  A    between atoms: _246  and  _249
REMARK   99  A    between atoms: _252  and  _254
REMARK  100  A    between atoms: _254  and  _255
REMARK  101  A    between atoms: _254  and  _257
REMARK  102  A    between atoms: _257  and  _258
REMARK  103  A    between atoms: _261  and  _263
REMARK  104  A    between atoms: _263  and  _264
REMARK  105  A    between atoms: _263  and  _266
REMARK  106  A    between atoms: _266  and  _267
REMARK  107  A    between atoms: _269  and  _271
REMARK  108  A    between atoms: _271  and  _272
REMARK  109  A    between atoms: _271  and  _274
REMARK  110  A    between atoms: _274  and  _275
REMARK  111  A    between atoms: _278  and  _280
REMARK  112  A    between atoms: _280  and  _281
REMARK  113  A    between atoms: _280  and  _283
REMARK  114  A    between atoms: _283  and  _284
REMARK  115  A    between atoms: _287  and  _289
REMARK  116  A    between atoms: _289  and  _290
REMARK  117  A    between atoms: _289  and  _292
REMARK  118  A    between atoms: _292  and  _293
REMARK  119  A    between atoms: _297  and  _298
REMARK  120  A    between atoms: _304  and  _305
REMARK  121  A    between atoms: _310  and  _312
REMARK  122  A    between atoms: _312  and  _313
REMARK  123  A    between atoms: _312  and  _315
REMARK  124  A    between atoms: _315  and  _316
REMARK  125  A    between atoms: _319  and  _321
REMARK  126  A    between atoms: _321  and  _322
REMARK  127  A    between atoms: _321  and  _324
REMARK  128  A    between atoms: _324  and  _325
REMARK  129  A    between atoms: _328  and  _330
REMARK  130  A    between atoms: _330  and  _331
REMARK  131  A    between atoms: _330  and  _333
REMARK  132  A    between atoms: _336  and  _338
REMARK  133  A    between atoms: _338  and  _339
REMARK  134  A    between atoms: _338  and  _341
REMARK  135  A    between atoms: _341  and  _342
REMARK  136  A    between atoms: _352  and  _354
REMARK  137  A    between atoms: _354  and  _355
REMARK  138  A    between atoms: _354  and  _357
REMARK  139  A    between atoms: _357  and  _358
REMARK  140  A    between atoms: _363  and  _365
REMARK  141  A    between atoms: _365  and  _366
REMARK  142  A    between atoms: _365  and  _368
REMARK  143  A    between atoms: _368  and  _369
REMARK  144  A    between atoms: _369  and  _370
REMARK  145  A    between atoms: _370  and  _371
REMARK                            x       y       z     vdW  Elec       q    Type
REMARK                         _______ _______ _______ _____ _____    ______ ____
ROOT
ATOM      1  CA  PHE A   3      13.873  -2.042   5.549  0.00  0.00    +0.153 C 
ENDROOT
BRANCH   1   3
ATOM      2  C   ALA A   2      15.985  -3.044   6.199  0.00  0.00    +0.241 C 
ATOM      3  N   PHE A   3      14.661  -3.031   6.320  0.00  0.00    -0.297 N 
ATOM      4  H   PHE A   3      14.184  -3.708   6.949  0.00  0.00    +0.150 HD
ATOM      5  O   ALA A   2      16.606  -2.460   5.314  0.00  0.00    -0.273 OA
BRANCH   2   6
ATOM      6  CA  ALA A   2      16.700  -3.910   7.298  0.00  0.00    +0.149 C 
ATOM      7  CB  ALA A   2      16.016  -3.781   8.637  0.00  0.00    +0.031 C 
BRANCH   6  10
ATOM      8  C   HIS A   1      19.124  -4.059   7.746  0.00  0.00    +0.239 C 
ATOM      9  O   HIS A   1      19.103  -5.220   8.176  0.00  0.00    -0.274 OA
ATOM     10  N   ALA A   2      18.063  -3.405   7.349  0.00  0.00    -0.297 N 
ATOM     11  H   ALA A   2      18.209  -2.423   7.038  0.00  0.00    +0.150 HD
BRANCH   8  12
ATOM     12  CA  HIS A   1      20.478  -3.320   7.561  0.00  0.00    +0.151 C 
BRANCH  12  13
ATOM     13  N   HIS A   1      20.571  -2.755   6.197  0.00  0.00    -0.238 NA
ATOM     14  H   HIS A   1      19.894  -2.016   5.918  0.00  0.00    +0.142 HD
ENDBRANCH  12  13
BRANCH  12  15
ATOM     15  CB  HIS A   1      20.653  -2.247   8.642  0.00  0.00    +0.074 C 
BRANCH  15  16
ATOM     16  CG  HIS A   1      21.932  -1.495   8.494  0.00  0.00    +0.082 A 
ATOM     17  CD2 HIS A   1      23.227  -1.886   8.595  0.00  0.00    +0.115 A 
ATOM     18  NE2 HIS A   1      24.005  -0.766   8.370  0.00  0.00    -0.221 NA
ATOM     19  CE1 HIS A   1      23.216   0.269   8.156  0.00  0.00    +0.199 A 
ATOM     20  ND1 HIS A   1      21.957  -0.166   8.162  0.00  0.00    -0.227 NA
ENDBRANCH  15  16
ENDBRANCH  12  15
ENDBRANCH   8  12
ENDBRANCH   6  10
ENDBRANCH   2   6
ENDBRANCH   1   3
BRANCH   1  21
ATOM     21  C   PHE A   3      13.023  -1.154   6.477  0.00  0.00    +0.241 C 
ATOM     22  O   PHE A   3      12.571  -1.603   7.548  0.00  0.00    -0.273 OA
ATOM     23  N   ASN A   4      12.770   0.053   5.985  0.00  0.00    -0.298 N 
ATOM     24  H   ASN A   4      13.076   0.283   5.018  0.00  0.00    +0.150 HD
BRANCH  23  25
ATOM     25  CA  ASN A   4      12.075   1.058   6.770  0.00  0.00    +0.146 C 
BRANCH  25  26
ATOM     26  C   ASN A   4      10.890   1.474   5.999  0.00  0.00    +0.227 C 
ATOM     27  O   ASN A   4      11.047   1.745   4.790  0.00  0.00    -0.286 OA
ENDBRANCH  25  26
BRANCH  25  28
ATOM     28  CB  ASN A   4      12.908   2.350   6.854  0.00  0.00    +0.112 C 
BRANCH  28  29
ATOM     29  CG  ASN A   4      14.083   2.178   7.671  0.00  0.00    +0.222 C 
ATOM     30  OD1 ASN A   4      14.129   1.239   8.553  0.00  0.00    -0.275 OA
ATOM     31  ND2 ASN A   4      15.049   3.052   7.491  0.00  0.00    -0.329 N 
ATOM     32 HD21 ASN A   4      15.907   3.007   8.077  0.00  0.00    +0.145 HD
ATOM     33 HD22 ASN A   4      14.955   3.788   6.763  0.00  0.00    +0.145 HD
ENDBRANCH  28  29
ENDBRANCH  25  28
ENDBRANCH  23  25
ENDBRANCH   1  21
BRANCH   1  34
ATOM     34  CB  PHE A   3      13.050  -2.714   4.418  0.00  0.00    +0.055 C 
BRANCH  34  35
ATOM     35  CG  PHE A   3      11.942  -3.583   4.917  0.00  0.00    -0.020 A 
ATOM     36  CD2 PHE A   3      10.682  -3.000   5.279  0.00  0.00    -0.004 A 
ATOM     37  CE2 PHE A   3       9.672  -3.782   5.795  0.00  0.00    -0.000 A 
ATOM     38  CZ  PHE A   3       9.876  -5.203   5.954  0.00  0.00    -0.000 A 
ATOM     39  CE1 PHE A   3      11.105  -5.765   5.626  0.00  0.00    -0.000 A 
ATOM     40  CD1 PHE A   3      12.125  -5.024   5.084  0.00  0.00    -0.004 A 
ENDBRANCH  34  35
ENDBRANCH   1  34
TORSDOF 14
REMARK  Name = ../refined-set-2016/4jss/4jss_pocket.pdb
REMARK  145 active torsions:
REMARK  status: ('A' for Active; 'I' for Inactive)
REMARK    1  A    between atoms: _1  and  _3
REMARK    2  A    between atoms: _3  and  _4
REMARK    3  A    between atoms: _3  and  _6
REMARK    4  A    between atoms: _6  and  _7
REMARK    5  A    between atoms: _17  and  _19
REMARK    6  A    between atoms: _19  and  _20
REMARK    7  A    between atoms: _19  and  _22
REMARK    8  A    between atoms: _22  and  _23
REMARK    9  A    between atoms: _28  and  _29
REMARK   10  A    between atoms: _31  and  _33
REMARK   11  A    between atoms: _33  and  _34
REMARK   12  A    between atoms: _33  and  _36
REMARK   13  A    between atoms: _36  and  _37
REMARK   14  A    between atoms: _42  and  _44
REMARK   15  A    between atoms: _44  and  _45
REMARK   16  A    between atoms: _44  and  _47
REMARK   17  A    between atoms: _47  and  _48
REMARK   18  A    between atoms: _53  and  _55
REMARK   19  A    between atoms: _55  and  _56
REMARK   20  A    between atoms: _59  and  _61
REMARK   21  A    between atoms: _61  and  _62
REMARK   22  A    between atoms: _61  and  _64
REMARK   23  A    between atoms: _64  and  _65
REMARK   24  A    between atoms: _71  and  _73
REMARK   25  A    between atoms: _73  and  _74
REMARK   26  A    between atoms: _73  and  _76
REMARK   27  A    between atoms: _76  and  _77
REMARK   28  A    between atoms: _82  and  _84
REMARK   29  A    between atoms: _84  and  _85
REMARK   30  A    between atoms: _84  and  _87
REMARK   31  A    between atoms: _87  and  _88
REMARK   32  A    between atoms: _91  and  _93
REMARK   33  A    between atoms: _93  and  _94
REMARK   34  A    between atoms: _93  and  _96
REMARK   35  A    between atoms: _96  and  _97
REMARK   36  A    between atoms: _97  and  _98
REMARK   37  A    between atoms: _103  and  _105
REMARK   38  A    between atoms: _105  and  _106
REMARK   39  A    between atoms: _105  and  _108
REMARK   40  A    between atoms: _108  and  _109
REMARK   41  A    between atoms: _115  and  _117
REMARK   42  A    between atoms: _117  and  _118
REMARK   43  A    between atoms: _117  and  _120
REMARK   44  A    between atoms: _120  and  _121
REMARK   45  A    between atoms: _121  and  _123
REMARK   46  A    between atoms: _123  and  ZN_380
REMARK   47  A    between atoms: _124  and  _126
REMARK   48  A    between atoms: _126  and  _127
REMARK   49  A    between atoms: _126  and  _129
REMARK   50  A    between atoms: _129  and  _130
REMARK   51  A    between atoms: _136  and  _138
REMARK   52  A    between atoms: _138  and  _139
REMARK   53  A    between atoms: _138  and  _141
REMARK   54  A    between atoms: _141  and  _142
REMARK   55  A    between atoms: _147  and  _149
REMARK   56  A    between atoms: _149  and  _150
REMARK   57  A    between atoms: _149  and  _152
REMARK   58  A    between atoms: _152  and  _153
REMARK   59  A    between atoms: _153  and  _154
REMARK   60  A    between atoms: _157  and  _159
REMARK   61  A    between atoms: _159  and  _160
REMARK   62  A    between atoms: _159  and  _162
REMARK   63  A    between atoms: _162  and  _163
REMARK   64  A    between atoms: _163  and  _164
REMARK   65  A    between atoms: _167  and  _169
REMARK   66  A    between atoms: _169  and  _170
REMARK   67  A    between atoms: _169  and  _172
REMARK   68  A    between atoms: _172  and  _173
REMARK   69  A    between atoms: _176  and  _178
REMARK   70  A    between atoms: _178  and  _179
REMARK   71  A    between atoms: _178  and  _181
REMARK   72  A    between atoms: _181  and  _182
REMARK   73  A    between atoms: _183  and  ZN_380
REMARK   74  A    between atoms: _187  and  _189
REMARK   75  A    between atoms: _189  and  _190
REMARK   76  A    between atoms: _189  and  _192
REMARK   77  A    between atoms: _192  and  _193
REMARK   78  A    between atoms: _196  and  _198
REMARK   79  A    between atoms: _198  and  _199
REMARK   80  A    between atoms: _198  and  _201
REMARK   81  A    between atoms: _204  and  _206
REMARK   82  A    between atoms: _206  and  _207
REMARK   83  A    between atoms: _206  and  _209
REMARK   84  A    between atoms: _209  and  _210
REMARK   85  A    between atoms: _215  and  _217
REMARK   86  A    between atoms: _217  and  _218
REMARK   87  A    between atoms: _217  and  _220
REMARK   88  A    between atoms: _220  and  _221
REMARK   89  A    between atoms: _227  and  _229
REMARK   90  A    between atoms: _229  and  _230
REMARK   91  A    between atoms: _229  and  _232
REMARK   92  A    between atoms: _235  and  _237
REMARK   93  A    between atoms: _237  and  _238
REMARK   94  A    between atoms: _237  and  _240
REMARK   95  A    between atoms: _240  and  _241
REMARK   96  A    between atoms: _244  and  _246
REMARK   97  A    between atoms: _246  and  _247
REMARK   98  A    between atoms: _246  and  _249
REMARK   99  A    between atoms: _252  and  _254
REMARK  100  A    between atoms: _254  and  _255
REMARK  101  A    between atoms: _254  and  _257
REMARK  102  A    between atoms: _257  and  _258
REMARK  103  A    between atoms: _261  and  _263
REMARK  104  A    between atoms: _263  and  _264
REMARK  105  A    between atoms: _263  and  _266
REMARK  106  A    between atoms: _266  and  _267
REMARK  107  A    between atoms: _269  and  _271
REMARK  108  A    between atoms: _271  and  _272
REMARK  109  A    between atoms: _271  and  _274
REMARK  110  A    between atoms: _274  and  _275
REMARK  111  A    between atoms: _278  and  _280
REMARK  112  A    between atoms: _280  and  _281
REMARK  113  A    between atoms: _280  and  _283
REMARK  114  A    between atoms: _283  and  _284
REMARK  115  A    between atoms: _287  and  _289
REMARK  116  A    between atoms: _289  and  _290
REMARK  117  A    between atoms: _289  and  _292
REMARK  118  A    between atoms: _292  and  _293
REMARK  119  A    between atoms: _297  and  _298
REMARK  120  A    between atoms: _304  and  _305
REMARK  121  A    between atoms: _310  and  _312
REMARK  122  A    between atoms: _312  and  _313
REMARK  123  A    between atoms: _312  and  _315
REMARK  124  A    between atoms: _315  and  _316
REMARK  125  A    between atoms: _319  and  _321
REMARK  126  A    between atoms: _321  and  _322
REMARK  127  A    between atoms: _321  and  _324
REMARK  128  A    between atoms: _324  and  _325
REMARK  129  A    between atoms: _328  and  _330
REMARK  130  A    between atoms: _330  and  _331
REMARK  131  A    between atoms: _330  and  _333
REMARK  132  A    between atoms: _336  and  _338
REMARK  133  A    between atoms: _338  and  _339
REMARK  134  A    between atoms: _338  and  _341
REMARK  135  A    between atoms: _341  and  _342
REMARK  136  A    between atoms: _352  and  _354
REMARK  137  A    between atoms: _354  and  _355
REMARK  138  A    between atoms: _354  and  _357
REMARK  139  A    between atoms: _357  and  _358
REMARK  140  A    between atoms: _363  and  _365
REMARK  141  A    between atoms: _365  and  _366
REMARK  142  A    between atoms: _365  and  _368
REMARK  143  A    between atoms: _368  and  _369
REMARK  144  A    between atoms: _369  and  _370
REMARK  145  A    between atoms: _370  and  _371
REMARK                            x       y       z     vdW  Elec       q    Type
REMARK                         _______ _______ _______ _____ _____    ______ ____
ROOT
ATOM      1  C   UNK A   4      12.357  -0.918  10.741  0.00  0.00    +0.000 C 
ENDROOT
BRANCH   1   2
ATOM      2  C   UNK A   4      12.690  -0.484  12.172  0.00  0.00    +0.000 C 
ATOM      3  O   UNK A   4      12.736   0.752  12.485  0.00  0.00    +0.000 OA
BRANCH   2   4
ATOM      4  O   UNK A   4      12.822  -1.409  12.950  0.00  0.00    +0.000 OA
BRANCH   4   5
ATOM      5 ZN   UNK A   4      13.883  -1.433  14.789  0.00  0.00    +0.000 Zn
BRANCH   5   6
ATOM      6  N   UNK A   4      12.751  -2.247  16.571  0.00  0.00    +0.000 N 
ATOM      7  C   UNK A   4      13.104  -3.200  17.430  0.00  0.00    +0.000 A 
ATOM      8  N   UNK A   4      12.051  -3.663  18.065  0.00  0.00    +0.000 NA
ATOM      9  C   UNK A   4      10.938  -2.967  17.624  0.00  0.00    +0.000 A 
ATOM     10  C   UNK A   4      11.378  -2.065  16.697  0.00  0.00    +0.000 A 
BRANCH  10  11
ATOM     11  C   UNK A   4      10.611  -1.059  15.861  0.00  0.00    +0.000 C 
BRANCH  11  12
ATOM     12  C   UNK A   4       9.118  -1.440  15.722  0.00  0.00    +0.000 C 
BRANCH  12  13
ATOM     13  N   UNK A   4       9.016  -2.660  14.938  0.00  0.00    +0.000 N 
ATOM     14  C   LEU A   2       8.447  -3.764  15.409  0.00  0.00    +0.000 C 
ATOM     15  O   LEU A   2       7.964  -3.847  16.564  0.00  0.00    +0.000 OA
ATOM     16  H   UNK A   4       9.403  -2.669  13.973  0.00  0.00    +0.000 HD
BRANCH  14  17
ATOM     17  CA  LEU A   2       8.274  -4.938  14.365  0.00  0.00    +0.000 C 
BRANCH  17  18
ATOM     18  N   LEU A   2       8.565  -6.161  15.051  0.00  0.00    +0.000 N 
ATOM     19  H   LEU A   2       7.822  -6.588  15.641  0.00  0.00    +0.000 HD
ATOM     20  C   GLU A   1       9.744  -6.778  14.968  0.00  0.00    +0.000 C 
ATOM     21  O   GLU A   1      10.678  -6.456  14.172  0.00  0.00    +0.000 OA
BRANCH  20  22
ATOM     22  CA  GLU A   1       9.895  -8.035  15.856  0.00  0.00    +0.000 C 
BRANCH  22  23
ATOM     23  N   GLU A   1      10.405  -9.113  14.932  0.00  0.00    +0.000 NA
ATOM     24  H   GLU A   1      11.023  -8.856  14.136  0.00  0.00    +0.000 HD
ENDBRANCH  22  23
BRANCH  22  25
ATOM     25  CB  GLU A   1      10.894  -7.810  16.991  0.00  0.00    +0.000 C 
BRANCH  25  26
ATOM     26  CG  GLU A   1      10.468  -6.809  17.951  0.00  0.00    +0.000 C 
BRANCH  26  27
ATOM     27  CD  GLU A   1      11.405  -6.787  19.124  0.00  0.00    +0.000 C 
ATOM     28  OE2 GLU A   1      11.569  -5.666  19.733  0.00  0.00    +0.000 OA
ATOM     29  OE1 GLU A   1      11.900  -7.857  19.545  0.00  0.00    +0.000 OA
ENDBRANCH  26  27
ENDBRANCH  25  26
ENDBRANCH  22  25
ENDBRANCH  20  22
ENDBRANCH  17  18
BRANCH  17  30
ATOM     30  CB  LEU A   2       6.762  -5.019  14.036  0.00  0.00    +0.000 C 
BRANCH  30  31
ATOM     31  CG  LEU A   2       5.977  -3.725  13.698  0.00  0.00    +0.000 C 
ATOM     32  CD2 LEU A   2       4.546  -4.185  13.391  0.00  0.00    +0.000 C 
ATOM     33  CD1 LEU A   2       6.542  -3.160  12.416  0.00  0.00    +0.000 C 
ENDBRANCH  30  31
ENDBRANCH  17  30
ENDBRANCH  14  17
ENDBRANCH  12  13
BRANCH  12  34
ATOM     34  C   UNK A   4       8.483  -0.314  15.009  0.00  0.00    +0.000 C 
ATOM     35  N   UNK A   4       7.527   0.266  15.718  0.00  0.00    +0.000 N 
ATOM     36  H   UNK A   4       7.211  -0.164  16.611  0.00  0.00    +0.000 HD
ATOM     37  O   UNK A   4       8.805   0.019  13.812  0.00  0.00    +0.000 OA
BRANCH  35  38
ATOM     38  C   UNK A   4       6.899   1.540  15.239  0.00  0.00    +0.000 C 
BRANCH  38  39
ATOM     39  C   UNK A   4       7.545   2.666  16.054  0.00  0.00    +0.000 C 
ATOM     40  O   UNK A   4       7.389   2.738  17.303  0.00  0.00    +0.000 OA
ATOM     41  N   VAL A   5       8.332   3.554  15.369  0.00  0.00    +0.000 N 
ATOM     42  H   VAL A   5       8.313   3.551  14.329  0.00  0.00    +0.000 HD
BRANCH  41  43
ATOM     43  CA  VAL A   5       9.199   4.507  16.063  0.00  0.00    +0.000 C 
BRANCH  43  44
ATOM     44  C   VAL A   5       8.548   5.865  16.018  0.00  0.00    +0.000 C 
ATOM     45  N   HIS A   6       8.498   6.500  17.191  0.00  0.00    +0.000 N 
ATOM     46  H   HIS A   6       8.950   6.060  18.018  0.00  0.00    +0.000 HD
ATOM     47  O   VAL A   5       8.104   6.269  14.963  0.00  0.00    +0.000 OA
BRANCH  45  48
ATOM     48  CA  HIS A   6       7.823   7.808  17.361  0.00  0.00    +0.000 C 
BRANCH  48  49
ATOM     49  C   HIS A   6       8.689   8.735  18.121  0.00  0.00    +0.000 C 
ATOM     50  O   HIS A   6       9.409   8.344  19.010  0.00  0.00    +0.000 OA
ENDBRANCH  48  49
BRANCH  48  51
ATOM     51  CB  HIS A   6       6.519   7.664  18.224  0.00  0.00    +0.000 C 
BRANCH  51  52
ATOM     52  CG  HIS A   6       5.642   6.565  17.752  0.00  0.00    +0.000 A 
ATOM     53  ND1 HIS A   6       5.893   5.224  18.053  0.00  0.00    +0.000 NA
ATOM     54  CE1 HIS A   6       4.929   4.461  17.561  0.00  0.00    +0.000 A 
ATOM     55  NE2 HIS A   6       4.031   5.264  17.007  0.00  0.00    +0.000 NA
ATOM     56  CD2 HIS A   6       4.436   6.579  17.159  0.00  0.00    +0.000 A 
ENDBRANCH  51  52
ENDBRANCH  48  51
ENDBRANCH  45  48
ENDBRANCH  43  44
BRANCH  43  57
ATOM     57  CB  VAL A   5      10.535   4.604  15.299  0.00  0.00    +0.000 C 
ATOM     58  CG2 VAL A   5      11.484   5.609  15.949  0.00  0.00    +0.000 C 
ATOM     59  CG1 VAL A   5      11.167   3.190  15.155  0.00  0.00    +0.000 C 
ENDBRANCH  43  57
ENDBRANCH  41  43
ENDBRANCH  38  39
BRANCH  38  60
ATOM     60  C   UNK A   4       5.389   1.465  15.398  0.00  0.00    +0.000 C 
BRANCH  60  61
ATOM     61  C   UNK A   4       4.784   0.413  14.489  0.00  0.00    +0.000 C 
ATOM     62  C   UNK A   4       3.824  -0.482  15.230  0.00  0.00    +0.000 C 
ATOM     63  C   UNK A   4       3.998   1.158  13.368  0.00  0.00    +0.000 C 
ENDBRANCH  60  61
ENDBRANCH  38  60
ENDBRANCH  35  38
ENDBRANCH  12  34
ENDBRANCH  11  12
ENDBRANCH  10  11
ENDBRANCH   5   6
ENDBRANCH   4   5
ENDBRANCH   2   4
ENDBRANCH   1   2
BRANCH   1  64
ATOM     64  C   UNK A   4      10.944  -1.459  10.611  0.00  0.00    +0.000 C 
BRANCH  64  65
ATOM     65  C   UNK A   4      10.801  -2.771  11.329  0.00  0.00    +0.000 C 
ATOM     66  O   UNK A   4      10.059  -2.910  12.328  0.00  0.00    +0.000 OA
ATOM     67  N   VAL A   5      11.471  -3.778  10.756  0.00  0.00    +0.000 N 
ATOM     68  H   VAL A   5      11.986  -3.626   9.865  0.00  0.00    +0.000 HD
BRANCH  67  69
ATOM     69  CA  VAL A   5      11.473  -5.101  11.396  0.00  0.00    +0.000 C 
BRANCH  69  70
ATOM     70  C   VAL A   5      12.866  -5.631  11.581  0.00  0.00    +0.000 C 
ATOM     71  N   HIS A   6      12.924  -6.605  12.449  0.00  0.00    +0.000 N 
ATOM     72  H   HIS A   6      12.093  -6.786  13.047  0.00  0.00    +0.000 HD
ATOM     73  O   VAL A   5      13.834  -5.228  10.922  0.00  0.00    +0.000 OA
BRANCH  71  74
ATOM     74  CA  HIS A   6      14.103  -7.452  12.619  0.00  0.00    +0.000 C 
BRANCH  74  75
ATOM     75  C   HIS A   6      13.661  -8.941  12.530  0.00  0.00    +0.000 C 
ATOM     76  O   HIS A   6      12.576  -9.222  13.076  0.00  0.00    +0.000 OA
ENDBRANCH  74  75
BRANCH  74  77
ATOM     77  CB  HIS A   6      14.749  -7.168  13.987  0.00  0.00    +0.000 C 
BRANCH  77  78
ATOM     78  CG  HIS A   6      15.056  -5.709  14.216  0.00  0.00    +0.000 A 
ATOM     79  CD2 HIS A   6      14.266  -4.646  14.470  0.00  0.00    +0.000 A 
ATOM     80  NE2 HIS A   6      15.100  -3.523  14.534  0.00  0.00    +0.000 NA
ATOM     81  CE1 HIS A   6      16.343  -3.920  14.301  0.00  0.00    +0.000 A 
ATOM     82  ND1 HIS A   6      16.312  -5.223  13.987  0.00  0.00    +0.000 NA
ENDBRANCH  77  78
ENDBRANCH  74  77
ENDBRANCH  71  74
ENDBRANCH  69  70
BRANCH  69  83
ATOM     83  CB  VAL A   5      10.827  -6.138  10.443  0.00  0.00    +0.000 C 
BRANCH  83  84
ATOM     84  CG  VAL A   5       9.347  -5.853  10.144  0.00  0.00    +0.000 A 
ATOM     85  CD2 VAL A   5       8.353  -6.554  10.833  0.00  0.00    +0.000 A 
ATOM     86  CE2 VAL A   5       6.952  -6.351  10.505  0.00  0.00    +0.000 A 
ATOM     87  CZ  VAL A   5       6.606  -5.367   9.513  0.00  0.00    +0.000 A 
ATOM     88  CE1 VAL A   5       7.606  -4.697   8.859  0.00  0.00    +0.000 A 
ATOM     89  CD1 VAL A   5       8.998  -4.916   9.172  0.00  0.00    +0.000 A 
ENDBRANCH  83  84
ENDBRANCH  69  83
ENDBRANCH  67  69
ENDBRANCH  64  65
BRANCH  64  91
ATOM     90  C   UNK A   3       9.486   0.475  10.418  0.00  0.00    +0.000 C 
ATOM     91  N   UNK A   4       9.990  -0.519  11.163  0.00  0.00    +0.000 N 
ATOM     92  H   UNK A   4       9.691  -0.617  12.154  0.00  0.00    +0.000 HD
ATOM     93  O   UNK A   3       9.839   0.684   9.233  0.00  0.00    +0.000 OA
BRANCH  90  94
ATOM     94  C   UNK A   3       8.472   1.318  11.139  0.00  0.00    +0.000 C 
BRANCH  94  97
ATOM     95  C   LEU A   2       8.552   3.709  11.333  0.00  0.00    +0.000 C 
ATOM     96  O   LEU A   2       8.353   3.687  12.532  0.00  0.00    +0.000 OA
ATOM     97  N   UNK A   3       8.370   2.685  10.508  0.00  0.00    +0.000 N 
ATOM     98  H   UNK A   3       8.171   2.816   9.496  0.00  0.00    +0.000 HD
BRANCH  95  99
ATOM     99  CA  LEU A   2       8.874   4.993  10.652  0.00  0.00    +0.000 C 
BRANCH  99 101
ATOM    100  C   GLU A   1       8.518   7.368  10.960  0.00  0.00    +0.000 C 
ATOM    101  N   LEU A   2       8.565   6.137  11.499  0.00  0.00    +0.000 N 
ATOM    102  H   LEU A   2       8.382   6.003  12.514  0.00  0.00    +0.000 HD
ATOM    103  O   GLU A   1       8.656   7.530   9.780  0.00  0.00    +0.000 OA
BRANCH 100 104
ATOM    104  CA  GLU A   1       8.257   8.549  11.883  0.00  0.00    +0.000 C 
BRANCH 104 105
ATOM    105  N   GLU A   1       7.312   8.183  12.984  0.00  0.00    +0.000 NA
ATOM    106  H   GLU A   1       7.632   7.557  13.750  0.00  0.00    +0.000 HD
ENDBRANCH 104 105
BRANCH 104 107
ATOM    107  CB  GLU A   1       9.543   9.213  12.435  0.00  0.00    +0.000 C 
ATOM    108  CG2 GLU A   1      10.291   8.376  13.441  0.00  0.00    +0.000 C 
BRANCH 107 109
ATOM    109  CG1 GLU A   1      10.479   9.492  11.219  0.00  0.00    +0.000 C 
ATOM    110  CD1 GLU A   1      11.602  10.470  11.645  0.00  0.00    +0.000 C 
ENDBRANCH 107 109
ENDBRANCH 104 107
ENDBRANCH 100 104
ENDBRANCH  99 101
BRANCH  99 111
ATOM    111  CB  LEU A   2      10.366   4.979  10.322  0.00  0.00    +0.000 C 
BRANCH 111 112
ATOM    112  CG  LEU A   2      11.289   4.567  11.409  0.00  0.00    +0.000 C 
BRANCH 112 113
ATOM    113  CD  LEU A   2      12.672   4.317  10.827  0.00  0.00    +0.000 C 
ATOM    114  NE2 LEU A   2      13.255   3.135  11.115  0.00  0.00    +0.000 N 
ATOM    115 HE21 LEU A   2      12.756   2.439  11.705  0.00  0.00    +0.000 HD
ATOM    116 HE22 LEU A   2      14.204   2.920  10.747  0.00  0.00    +0.000 HD
ATOM    117  OE1 LEU A   2      13.223   5.189  10.125  0.00  0.00    +0.000 OA
ENDBRANCH 112 113
ENDBRANCH 111 112
ENDBRANCH  99 111
ENDBRANCH  95  99
ENDBRANCH  94  97
BRANCH  94 118
ATOM    118  C   UNK A   3       7.085   0.666  11.262  0.00  0.00    +0.000 C 
BRANCH 118 119
ATOM    119  C   UNK A   3       6.435   0.233   9.979  0.00  0.00    +0.000 A 
ATOM    120  C   UNK A   3       5.255   0.905   9.551  0.00  0.00    +0.000 A 
ATOM    121  C   UNK A   3       4.530   0.446   8.458  0.00  0.00    +0.000 A 
ATOM    122  C   UNK A   3       5.046  -0.654   7.674  0.00  0.00    +0.000 A 
ATOM    123  C   UNK A   3       6.177  -1.304   8.055  0.00  0.00    +0.000 A 
ATOM    124  C   UNK A   3       6.883  -0.863   9.230  0.00  0.00    +0.000 A 
ENDBRANCH 118 119
ENDBRANCH  94 118
ENDBRANCH  90  94
ENDBRANCH  64  91
ENDBRANCH   1  64
TORSDOF 52
REMARK  Name = ../refined-set-2016/4jss/4jss_pocket.pdb
REMARK  145 active torsions:
REMARK  status: ('A' for Active; 'I' for Inactive)
REMARK    1  A    between atoms: _1  and  _3
REMARK    2  A    between atoms: _3  and  _4
REMARK    3  A    between atoms: _3  and  _6
REMARK    4  A    between atoms: _6  and  _7
REMARK    5  A    between atoms: _17  and  _19
REMARK    6  A    between atoms: _19  and  _20
REMARK    7  A    between atoms: _19  and  _22
REMARK    8  A    between atoms: _22  and  _23
REMARK    9  A    between atoms: _28  and  _29
REMARK   10  A    between atoms: _31  and  _33
REMARK   11  A    between atoms: _33  and  _34
REMARK   12  A    between atoms: _33  and  _36
REMARK   13  A    between atoms: _36  and  _37
REMARK   14  A    between atoms: _42  and  _44
REMARK   15  A    between atoms: _44  and  _45
REMARK   16  A    between atoms: _44  and  _47
REMARK   17  A    between atoms: _47  and  _48
REMARK   18  A    between atoms: _53  and  _55
REMARK   19  A    between atoms: _55  and  _56
REMARK   20  A    between atoms: _59  and  _61
REMARK   21  A    between atoms: _61  and  _62
REMARK   22  A    between atoms: _61  and  _64
REMARK   23  A    between atoms: _64  and  _65
REMARK   24  A    between atoms: _71  and  _73
REMARK   25  A    between atoms: _73  and  _74
REMARK   26  A    between atoms: _73  and  _76
REMARK   27  A    between atoms: _76  and  _77
REMARK   28  A    between atoms: _82  and  _84
REMARK   29  A    between atoms: _84  and  _85
REMARK   30  A    between atoms: _84  and  _87
REMARK   31  A    between atoms: _87  and  _88
REMARK   32  A    between atoms: _91  and  _93
REMARK   33  A    between atoms: _93  and  _94
REMARK   34  A    between atoms: _93  and  _96
REMARK   35  A    between atoms: _96  and  _97
REMARK   36  A    between atoms: _97  and  _98
REMARK   37  A    between atoms: _103  and  _105
REMARK   38  A    between atoms: _105  and  _106
REMARK   39  A    between atoms: _105  and  _108
REMARK   40  A    between atoms: _108  and  _109
REMARK   41  A    between atoms: _115  and  _117
REMARK   42  A    between atoms: _117  and  _118
REMARK   43  A    between atoms: _117  and  _120
REMARK   44  A    between atoms: _120  and  _121
REMARK   45  A    between atoms: _121  and  _123
REMARK   46  A    between atoms: _123  and  ZN_380
REMARK   47  A    between atoms: _124  and  _126
REMARK   48  A    between atoms: _126  and  _127
REMARK   49  A    between atoms: _126  and  _129
REMARK   50  A    between atoms: _129  and  _130
REMARK   51  A    between atoms: _136  and  _138
REMARK   52  A    between atoms: _138  and  _139
REMARK   53  A    between atoms: _138  and  _141
REMARK   54  A    between atoms: _141  and  _142
REMARK   55  A    between atoms: _147  and  _149
REMARK   56  A    between atoms: _149  and  _150
REMARK   57  A    between atoms: _149  and  _152
REMARK   58  A    between atoms: _152  and  _153
REMARK   59  A    between atoms: _153  and  _154
REMARK   60  A    between atoms: _157  and  _159
REMARK   61  A    between atoms: _159  and  _160
REMARK   62  A    between atoms: _159  and  _162
REMARK   63  A    between atoms: _162  and  _163
REMARK   64  A    between atoms: _163  and  _164
REMARK   65  A    between atoms: _167  and  _169
REMARK   66  A    between atoms: _169  and  _170
REMARK   67  A    between atoms: _169  and  _172
REMARK   68  A    between atoms: _172  and  _173
REMARK   69  A    between atoms: _176  and  _178
REMARK   70  A    between atoms: _178  and  _179
REMARK   71  A    between atoms: _178  and  _181
REMARK   72  A    between atoms: _181  and  _182
REMARK   73  A    between atoms: _183  and  ZN_380
REMARK   74  A    between atoms: _187  and  _189
REMARK   75  A    between atoms: _189  and  _190
REMARK   76  A    between atoms: _189  and  _192
REMARK   77  A    between atoms: _192  and  _193
REMARK   78  A    between atoms: _196  and  _198
REMARK   79  A    between atoms: _198  and  _199
REMARK   80  A    between atoms: _198  and  _201
REMARK   81  A    between atoms: _204  and  _206
REMARK   82  A    between atoms: _206  and  _207
REMARK   83  A    between atoms: _206  and  _209
REMARK   84  A    between atoms: _209  and  _210
REMARK   85  A    between atoms: _215  and  _217
REMARK   86  A    between atoms: _217  and  _218
REMARK   87  A    between atoms: _217  and  _220
REMARK   88  A    between atoms: _220  and  _221
REMARK   89  A    between atoms: _227  and  _229
REMARK   90  A    between atoms: _229  and  _230
REMARK   91  A    between atoms: _229  and  _232
REMARK   92  A    between atoms: _235  and  _237
REMARK   93  A    between atoms: _237  and  _238
REMARK   94  A    between atoms: _237  and  _240
REMARK   95  A    between atoms: _240  and  _241
REMARK   96  A    between atoms: _244  and  _246
REMARK   97  A    between atoms: _246  and  _247
REMARK   98  A    between atoms: _246  and  _249
REMARK   99  A    between atoms: _252  and  _254
REMARK  100  A    between atoms: _254  and  _255
REMARK  101  A    between atoms: _254  and  _257
REMARK  102  A    between atoms: _257  and  _258
REMARK  103  A    between atoms: _261  and  _263
REMARK  104  A    between atoms: _263  and  _264
REMARK  105  A    between atoms: _263  and  _266
REMARK  106  A    between atoms: _266  and  _267
REMARK  107  A    between atoms: _269  and  _271
REMARK  108  A    between atoms: _271  and  _272
REMARK  109  A    between atoms: _271  and  _274
REMARK  110  A    between atoms: _274  and  _275
REMARK  111  A    between atoms: _278  and  _280
REMARK  112  A    between atoms: _280  and  _281
REMARK  113  A    between atoms: _280  and  _283
REMARK  114  A    between atoms: _283  and  _284
REMARK  115  A    between atoms: _287  and  _289
REMARK  116  A    between atoms: _289  and  _290
REMARK  117  A    between atoms: _289  and  _292
REMARK  118  A    between atoms: _292  and  _293
REMARK  119  A    between atoms: _297  and  _298
REMARK  120  A    between atoms: _304  and  _305
REMARK  121  A    between atoms: _310  and  _312
REMARK  122  A    between atoms: _312  and  _313
REMARK  123  A    between atoms: _312  and  _315
REMARK  124  A    between atoms: _315  and  _316
REMARK  125  A    between atoms: _319  and  _321
REMARK  126  A    between atoms: _321  and  _322
REMARK  127  A    between atoms: _321  and  _324
REMARK  128  A    between atoms: _324  and  _325
REMARK  129  A    between atoms: _328  and  _330
REMARK  130  A    between atoms: _330  and  _331
REMARK  131  A    between atoms: _330  and  _333
REMARK  132  A    between atoms: _336  and  _338
REMARK  133  A    between atoms: _338  and  _339
REMARK  134  A    between atoms: _338  and  _341
REMARK  135  A    between atoms: _341  and  _342
REMARK  136  A    between atoms: _352  and  _354
REMARK  137  A    between atoms: _354  and  _355
REMARK  138  A    between atoms: _354  and  _357
REMARK  139  A    between atoms: _357  and  _358
REMARK  140  A    between atoms: _363  and  _365
REMARK  141  A    between atoms: _365  and  _366
REMARK  142  A    between atoms: _365  and  _368
REMARK  143  A    between atoms: _368  and  _369
REMARK  144  A    between atoms: _369  and  _370
REMARK  145  A    between atoms: _370  and  _371
REMARK                            x       y       z     vdW  Elec       q    Type
REMARK                         _______ _______ _______ _____ _____    ______ ____
ROOT
ATOM      1  CA  GLU A   1      15.361  -8.420  19.683  0.00  0.00    +0.102 C 
ENDROOT
BRANCH   1   2
ATOM      2  N   GLU A   1      14.302  -9.141  18.908  0.00  0.00    -0.244 NA
ATOM      3  H   GLU A   1      13.421  -8.629  18.699  0.00  0.00    +0.141 HD
ENDBRANCH   1   2
BRANCH   1   4
ATOM      4  C   GLU A   1      14.993  -8.575  21.140  0.00  0.00    +0.199 C 
ATOM      5  O   GLU A   1      15.805  -9.227  21.933  0.00  0.00    -0.219 OA
ENDBRANCH   1   4
BRANCH   1   6
ATOM      6  CB  GLU A   1      15.387  -6.970  19.310  0.00  0.00    +0.032 C 
BRANCH   6   7
ATOM      7  CG  GLU A   1      15.787  -6.924  17.824  0.00  0.00    +0.116 C 
BRANCH   7   8
ATOM      8  CD  GLU A   1      16.426  -5.600  17.416  0.00  0.00    +0.365 C 
ATOM      9  OE2 GLU A   1      15.773  -4.541  17.563  0.00  0.00    -0.246 OA
ATOM     10  OE1 GLU A   1      17.601  -5.738  17.015  0.00  0.00    -0.246 OA
ENDBRANCH   7   8
ENDBRANCH   6   7
ENDBRANCH   1   6
TORSDOF 5
REMARK  Name = ../refined-set-2016/4jss/4jss_pocket.pdb
REMARK  145 active torsions:
REMARK  status: ('A' for Active; 'I' for Inactive)
REMARK    1  A    between atoms: _1  and  _3
REMARK    2  A    between atoms: _3  and  _4
REMARK    3  A    between atoms: _3  and  _6
REMARK    4  A    between atoms: _6  and  _7
REMARK    5  A    between atoms: _17  and  _19
REMARK    6  A    between atoms: _19  and  _20
REMARK    7  A    between atoms: _19  and  _22
REMARK    8  A    between atoms: _22  and  _23
REMARK    9  A    between atoms: _28  and  _29
REMARK   10  A    between atoms: _31  and  _33
REMARK   11  A    between atoms: _33  and  _34
REMARK   12  A    between atoms: _33  and  _36
REMARK   13  A    between atoms: _36  and  _37
REMARK   14  A    between atoms: _42  and  _44
REMARK   15  A    between atoms: _44  and  _45
REMARK   16  A    between atoms: _44  and  _47
REMARK   17  A    between atoms: _47  and  _48
REMARK   18  A    between atoms: _53  and  _55
REMARK   19  A    between atoms: _55  and  _56
REMARK   20  A    between atoms: _59  and  _61
REMARK   21  A    between atoms: _61  and  _62
REMARK   22  A    between atoms: _61  and  _64
REMARK   23  A    between atoms: _64  and  _65
REMARK   24  A    between atoms: _71  and  _73
REMARK   25  A    between atoms: _73  and  _74
REMARK   26  A    between atoms: _73  and  _76
REMARK   27  A    between atoms: _76  and  _77
REMARK   28  A    between atoms: _82  and  _84
REMARK   29  A    between atoms: _84  and  _85
REMARK   30  A    between atoms: _84  and  _87
REMARK   31  A    between atoms: _87  and  _88
REMARK   32  A    between atoms: _91  and  _93
REMARK   33  A    between atoms: _93  and  _94
REMARK   34  A    between atoms: _93  and  _96
REMARK   35  A    between atoms: _96  and  _97
REMARK   36  A    between atoms: _97  and  _98
REMARK   37  A    between atoms: _103  and  _105
REMARK   38  A    between atoms: _105  and  _106
REMARK   39  A    between atoms: _105  and  _108
REMARK   40  A    between atoms: _108  and  _109
REMARK   41  A    between atoms: _115  and  _117
REMARK   42  A    between atoms: _117  and  _118
REMARK   43  A    between atoms: _117  and  _120
REMARK   44  A    between atoms: _120  and  _121
REMARK   45  A    between atoms: _121  and  _123
REMARK   46  A    between atoms: _123  and  ZN_380
REMARK   47  A    between atoms: _124  and  _126
REMARK   48  A    between atoms: _126  and  _127
REMARK   49  A    between atoms: _126  and  _129
REMARK   50  A    between atoms: _129  and  _130
REMARK   51  A    between atoms: _136  and  _138
REMARK   52  A    between atoms: _138  and  _139
REMARK   53  A    between atoms: _138  and  _141
REMARK   54  A    between atoms: _141  and  _142
REMARK   55  A    between atoms: _147  and  _149
REMARK   56  A    between atoms: _149  and  _150
REMARK   57  A    between atoms: _149  and  _152
REMARK   58  A    between atoms: _152  and  _153
REMARK   59  A    between atoms: _153  and  _154
REMARK   60  A    between atoms: _157  and  _159
REMARK   61  A    between atoms: _159  and  _160
REMARK   62  A    between atoms: _159  and  _162
REMARK   63  A    between atoms: _162  and  _163
REMARK   64  A    between atoms: _163  and  _164
REMARK   65  A    between atoms: _167  and  _169
REMARK   66  A    between atoms: _169  and  _170
REMARK   67  A    between atoms: _169  and  _172
REMARK   68  A    between atoms: _172  and  _173
REMARK   69  A    between atoms: _176  and  _178
REMARK   70  A    between atoms: _178  and  _179
REMARK   71  A    between atoms: _178  and  _181
REMARK   72  A    between atoms: _181  and  _182
REMARK   73  A    between atoms: _183  and  ZN_380
REMARK   74  A    between atoms: _187  and  _189
REMARK   75  A    between atoms: _189  and  _190
REMARK   76  A    between atoms: _189  and  _192
REMARK   77  A    between atoms: _192  and  _193
REMARK   78  A    between atoms: _196  and  _198
REMARK   79  A    between atoms: _198  and  _199
REMARK   80  A    between atoms: _198  and  _201
REMARK   81  A    between atoms: _204  and  _206
REMARK   82  A    between atoms: _206  and  _207
REMARK   83  A    between atoms: _206  and  _209
REMARK   84  A    between atoms: _209  and  _210
REMARK   85  A    between atoms: _215  and  _217
REMARK   86  A    between atoms: _217  and  _218
REMARK   87  A    between atoms: _217  and  _220
REMARK   88  A    between atoms: _220  and  _221
REMARK   89  A    between atoms: _227  and  _229
REMARK   90  A    between atoms: _229  and  _230
REMARK   91  A    between atoms: _229  and  _232
REMARK   92  A    between atoms: _235  and  _237
REMARK   93  A    between atoms: _237  and  _238
REMARK   94  A    between atoms: _237  and  _240
REMARK   95  A    between atoms: _240  and  _241
REMARK   96  A    between atoms: _244  and  _246
REMARK   97  A    between atoms: _246  and  _247
REMARK   98  A    between atoms: _246  and  _249
REMARK   99  A    between atoms: _252  and  _254
REMARK  100  A    between atoms: _254  and  _255
REMARK  101  A    between atoms: _254  and  _257
REMARK  102  A    between atoms: _257  and  _258
REMARK  103  A    between atoms: _261  and  _263
REMARK  104  A    between atoms: _263  and  _264
REMARK  105  A    between atoms: _263  and  _266
REMARK  106  A    between atoms: _266  and  _267
REMARK  107  A    between atoms: _269  and  _271
REMARK  108  A    between atoms: _271  and  _272
REMARK  109  A    between atoms: _271  and  _274
REMARK  110  A    between atoms: _274  and  _275
REMARK  111  A    between atoms: _278  and  _280
REMARK  112  A    between atoms: _280  and  _281
REMARK  113  A    between atoms: _280  and  _283
REMARK  114  A    between atoms: _283  and  _284
REMARK  115  A    between atoms: _287  and  _289
REMARK  116  A    between atoms: _289  and  _290
REMARK  117  A    between atoms: _289  and  _292
REMARK  118  A    between atoms: _292  and  _293
REMARK  119  A    between atoms: _297  and  _298
REMARK  120  A    between atoms: _304  and  _305
REMARK  121  A    between atoms: _310  and  _312
REMARK  122  A    between atoms: _312  and  _313
REMARK  123  A    between atoms: _312  and  _315
REMARK  124  A    between atoms: _315  and  _316
REMARK  125  A    between atoms: _319  and  _321
REMARK  126  A    between atoms: _321  and  _322
REMARK  127  A    between atoms: _321  and  _324
REMARK  128  A    between atoms: _324  and  _325
REMARK  129  A    between atoms: _328  and  _330
REMARK  130  A    between atoms: _330  and  _331
REMARK  131  A    between atoms: _330  and  _333
REMARK  132  A    between atoms: _336  and  _338
REMARK  133  A    between atoms: _338  and  _339
REMARK  134  A    between atoms: _338  and  _341
REMARK  135  A    between atoms: _341  and  _342
REMARK  136  A    between atoms: _352  and  _354
REMARK  137  A    between atoms: _354  and  _355
REMARK  138  A    between atoms: _354  and  _357
REMARK  139  A    between atoms: _357  and  _358
REMARK  140  A    between atoms: _363  and  _365
REMARK  141  A    between atoms: _365  and  _366
REMARK  142  A    between atoms: _365  and  _368
REMARK  143  A    between atoms: _368  and  _369
REMARK  144  A    between atoms: _369  and  _370
REMARK  145  A    between atoms: _370  and  _371
REMARK                            x       y       z     vdW  Elec       q    Type
REMARK                         _______ _______ _______ _____ _____    ______ ____
ROOT
ATOM      1  CB  PHE A   1      13.429  12.701  14.302  0.00  0.00    +0.051 C 
ENDROOT
BRANCH   1   2
ATOM      2  CG  PHE A   1      14.136  11.373  14.596  0.00  0.00    -0.020 A 
ATOM      3  CD2 PHE A   1      13.411  10.313  15.081  0.00  0.00    -0.004 A 
ATOM      4  CE2 PHE A   1      14.018   9.109  15.333  0.00  0.00    -0.000 A 
ATOM      5  CZ  PHE A   1      15.385   8.928  15.130  0.00  0.00    -0.000 A 
ATOM      6  CE1 PHE A   1      16.179   9.975  14.624  0.00  0.00    -0.000 A 
ATOM      7  CD1 PHE A   1      15.518  11.213  14.331  0.00  0.00    -0.004 A 
ENDBRANCH   1   2
BRANCH   1   8
ATOM      8  CA  PHE A   1      13.525  13.733  15.473  0.00  0.00    +0.137 C 
BRANCH   8   9
ATOM      9  N   PHE A   1      12.953  15.020  14.985  0.00  0.00    -0.239 NA
ATOM     10  H   PHE A   1      12.682  15.147  13.989  0.00  0.00    +0.142 HD
ENDBRANCH   8   9
BRANCH   8  11
ATOM     11  C   PHE A   1      14.951  13.957  15.940  0.00  0.00    +0.224 C 
ATOM     12  O   PHE A   1      15.394  13.391  16.956  0.00  0.00    -0.287 OA
ENDBRANCH   8  11
ENDBRANCH   1   8
TORSDOF 4
REMARK  Name = ../refined-set-2016/4jss/4jss_pocket.pdb
REMARK  145 active torsions:
REMARK  status: ('A' for Active; 'I' for Inactive)
REMARK    1  A    between atoms: _1  and  _3
REMARK    2  A    between atoms: _3  and  _4
REMARK    3  A    between atoms: _3  and  _6
REMARK    4  A    between atoms: _6  and  _7
REMARK    5  A    between atoms: _17  and  _19
REMARK    6  A    between atoms: _19  and  _20
REMARK    7  A    between atoms: _19  and  _22
REMARK    8  A    between atoms: _22  and  _23
REMARK    9  A    between atoms: _28  and  _29
REMARK   10  A    between atoms: _31  and  _33
REMARK   11  A    between atoms: _33  and  _34
REMARK   12  A    between atoms: _33  and  _36
REMARK   13  A    between atoms: _36  and  _37
REMARK   14  A    between atoms: _42  and  _44
REMARK   15  A    between atoms: _44  and  _45
REMARK   16  A    between atoms: _44  and  _47
REMARK   17  A    between atoms: _47  and  _48
REMARK   18  A    between atoms: _53  and  _55
REMARK   19  A    between atoms: _55  and  _56
REMARK   20  A    between atoms: _59  and  _61
REMARK   21  A    between atoms: _61  and  _62
REMARK   22  A    between atoms: _61  and  _64
REMARK   23  A    between atoms: _64  and  _65
REMARK   24  A    between atoms: _71  and  _73
REMARK   25  A    between atoms: _73  and  _74
REMARK   26  A    between atoms: _73  and  _76
REMARK   27  A    between atoms: _76  and  _77
REMARK   28  A    between atoms: _82  and  _84
REMARK   29  A    between atoms: _84  and  _85
REMARK   30  A    between atoms: _84  and  _87
REMARK   31  A    between atoms: _87  and  _88
REMARK   32  A    between atoms: _91  and  _93
REMARK   33  A    between atoms: _93  and  _94
REMARK   34  A    between atoms: _93  and  _96
REMARK   35  A    between atoms: _96  and  _97
REMARK   36  A    between atoms: _97  and  _98
REMARK   37  A    between atoms: _103  and  _105
REMARK   38  A    between atoms: _105  and  _106
REMARK   39  A    between atoms: _105  and  _108
REMARK   40  A    between atoms: _108  and  _109
REMARK   41  A    between atoms: _115  and  _117
REMARK   42  A    between atoms: _117  and  _118
REMARK   43  A    between atoms: _117  and  _120
REMARK   44  A    between atoms: _120  and  _121
REMARK   45  A    between atoms: _121  and  _123
REMARK   46  A    between atoms: _123  and  ZN_380
REMARK   47  A    between atoms: _124  and  _126
REMARK   48  A    between atoms: _126  and  _127
REMARK   49  A    between atoms: _126  and  _129
REMARK   50  A    between atoms: _129  and  _130
REMARK   51  A    between atoms: _136  and  _138
REMARK   52  A    between atoms: _138  and  _139
REMARK   53  A    between atoms: _138  and  _141
REMARK   54  A    between atoms: _141  and  _142
REMARK   55  A    between atoms: _147  and  _149
REMARK   56  A    between atoms: _149  and  _150
REMARK   57  A    between atoms: _149  and  _152
REMARK   58  A    between atoms: _152  and  _153
REMARK   59  A    between atoms: _153  and  _154
REMARK   60  A    between atoms: _157  and  _159
REMARK   61  A    between atoms: _159  and  _160
REMARK   62  A    between atoms: _159  and  _162
REMARK   63  A    between atoms: _162  and  _163
REMARK   64  A    between atoms: _163  and  _164
REMARK   65  A    between atoms: _167  and  _169
REMARK   66  A    between atoms: _169  and  _170
REMARK   67  A    between atoms: _169  and  _172
REMARK   68  A    between atoms: _172  and  _173
REMARK   69  A    between atoms: _176  and  _178
REMARK   70  A    between atoms: _178  and  _179
REMARK   71  A    between atoms: _178  and  _181
REMARK   72  A    between atoms: _181  and  _182
REMARK   73  A    between atoms: _183  and  ZN_380
REMARK   74  A    between atoms: _187  and  _189
REMARK   75  A    between atoms: _189  and  _190
REMARK   76  A    between atoms: _189  and  _192
REMARK   77  A    between atoms: _192  and  _193
REMARK   78  A    between atoms: _196  and  _198
REMARK   79  A    between atoms: _198  and  _199
REMARK   80  A    between atoms: _198  and  _201
REMARK   81  A    between atoms: _204  and  _206
REMARK   82  A    between atoms: _206  and  _207
REMARK   83  A    between atoms: _206  and  _209
REMARK   84  A    between atoms: _209  and  _210
REMARK   85  A    between atoms: _215  and  _217
REMARK   86  A    between atoms: _217  and  _218
REMARK   87  A    between atoms: _217  and  _220
REMARK   88  A    between atoms: _220  and  _221
REMARK   89  A    between atoms: _227  and  _229
REMARK   90  A    between atoms: _229  and  _230
REMARK   91  A    between atoms: _229  and  _232
REMARK   92  A    between atoms: _235  and  _237
REMARK   93  A    between atoms: _237  and  _238
REMARK   94  A    between atoms: _237  and  _240
REMARK   95  A    between atoms: _240  and  _241
REMARK   96  A    between atoms: _244  and  _246
REMARK   97  A    between atoms: _246  and  _247
REMARK   98  A    between atoms: _246  and  _249
REMARK   99  A    between atoms: _252  and  _254
REMARK  100  A    between atoms: _254  and  _255
REMARK  101  A    between atoms: _254  and  _257
REMARK  102  A    between atoms: _257  and  _258
REMARK  103  A    between atoms: _261  and  _263
REMARK  104  A    between atoms: _263  and  _264
REMARK  105  A    between atoms: _263  and  _266
REMARK  106  A    between atoms: _266  and  _267
REMARK  107  A    between atoms: _269  and  _271
REMARK  108  A    between atoms: _271  and  _272
REMARK  109  A    between atoms: _271  and  _274
REMARK  110  A    between atoms: _274  and  _275
REMARK  111  A    between atoms: _278  and  _280
REMARK  112  A    between atoms: _280  and  _281
REMARK  113  A    between atoms: _280  and  _283
REMARK  114  A    between atoms: _283  and  _284
REMARK  115  A    between atoms: _287  and  _289
REMARK  116  A    between atoms: _289  and  _290
REMARK  117  A    between atoms: _289  and  _292
REMARK  118  A    between atoms: _292  and  _293
REMARK  119  A    between atoms: _297  and  _298
REMARK  120  A    between atoms: _304  and  _305
REMARK  121  A    between atoms: _310  and  _312
REMARK  122  A    between atoms: _312  and  _313
REMARK  123  A    between atoms: _312  and  _315
REMARK  124  A    between atoms: _315  and  _316
REMARK  125  A    between atoms: _319  and  _321
REMARK  126  A    between atoms: _321  and  _322
REMARK  127  A    between atoms: _321  and  _324
REMARK  128  A    between atoms: _324  and  _325
REMARK  129  A    between atoms: _328  and  _330
REMARK  130  A    between atoms: _330  and  _331
REMARK  131  A    between atoms: _330  and  _333
REMARK  132  A    between atoms: _336  and  _338
REMARK  133  A    between atoms: _338  and  _339
REMARK  134  A    between atoms: _338  and  _341
REMARK  135  A    between atoms: _341  and  _342
REMARK  136  A    between atoms: _352  and  _354
REMARK  137  A    between atoms: _354  and  _355
REMARK  138  A    between atoms: _354  and  _357
REMARK  139  A    between atoms: _357  and  _358
REMARK  140  A    between atoms: _363  and  _365
REMARK  141  A    between atoms: _365  and  _366
REMARK  142  A    between atoms: _365  and  _368
REMARK  143  A    between atoms: _368  and  _369
REMARK  144  A    between atoms: _369  and  _370
REMARK  145  A    between atoms: _370  and  _371
REMARK                            x       y       z     vdW  Elec       q    Type
REMARK                         _______ _______ _______ _____ _____    ______ ____
ROOT
ATOM      1  CA  VAL A   1      17.325  11.878  20.114  0.00  0.00    +0.133 C 
ENDROOT
BRANCH   1   2
ATOM      2  CB  VAL A   1      17.738  11.006  18.912  0.00  0.00    +0.023 C 
ATOM      3  CG2 VAL A   1      16.509  10.284  18.330  0.00  0.00    +0.002 C 
ATOM      4  CG1 VAL A   1      18.497  11.788  17.871  0.00  0.00    +0.002 C 
ENDBRANCH   1   2
BRANCH   1   5
ATOM      5  N   VAL A   1      16.286  12.930  19.737  0.00  0.00    -0.239 NA
ATOM      6  H   VAL A   1      16.275  13.346  18.784  0.00  0.00    +0.142 HD
ENDBRANCH   1   5
BRANCH   1   7
ATOM      7  C   VAL A   1      18.487  12.410  20.920  0.00  0.00    +0.224 C 
ATOM      8  O   VAL A   1      19.538  11.727  21.181  0.00  0.00    -0.287 OA
ENDBRANCH   1   7
TORSDOF 3
REMARK  Name = ../refined-set-2016/4jss/4jss_pocket.pdb
REMARK  145 active torsions:
REMARK  status: ('A' for Active; 'I' for Inactive)
REMARK    1  A    between atoms: _1  and  _3
REMARK    2  A    between atoms: _3  and  _4
REMARK    3  A    between atoms: _3  and  _6
REMARK    4  A    between atoms: _6  and  _7
REMARK    5  A    between atoms: _17  and  _19
REMARK    6  A    between atoms: _19  and  _20
REMARK    7  A    between atoms: _19  and  _22
REMARK    8  A    between atoms: _22  and  _23
REMARK    9  A    between atoms: _28  and  _29
REMARK   10  A    between atoms: _31  and  _33
REMARK   11  A    between atoms: _33  and  _34
REMARK   12  A    between atoms: _33  and  _36
REMARK   13  A    between atoms: _36  and  _37
REMARK   14  A    between atoms: _42  and  _44
REMARK   15  A    between atoms: _44  and  _45
REMARK   16  A    between atoms: _44  and  _47
REMARK   17  A    between atoms: _47  and  _48
REMARK   18  A    between atoms: _53  and  _55
REMARK   19  A    between atoms: _55  and  _56
REMARK   20  A    between atoms: _59  and  _61
REMARK   21  A    between atoms: _61  and  _62
REMARK   22  A    between atoms: _61  and  _64
REMARK   23  A    between atoms: _64  and  _65
REMARK   24  A    between atoms: _71  and  _73
REMARK   25  A    between atoms: _73  and  _74
REMARK   26  A    between atoms: _73  and  _76
REMARK   27  A    between atoms: _76  and  _77
REMARK   28  A    between atoms: _82  and  _84
REMARK   29  A    between atoms: _84  and  _85
REMARK   30  A    between atoms: _84  and  _87
REMARK   31  A    between atoms: _87  and  _88
REMARK   32  A    between atoms: _91  and  _93
REMARK   33  A    between atoms: _93  and  _94
REMARK   34  A    between atoms: _93  and  _96
REMARK   35  A    between atoms: _96  and  _97
REMARK   36  A    between atoms: _97  and  _98
REMARK   37  A    between atoms: _103  and  _105
REMARK   38  A    between atoms: _105  and  _106
REMARK   39  A    between atoms: _105  and  _108
REMARK   40  A    between atoms: _108  and  _109
REMARK   41  A    between atoms: _115  and  _117
REMARK   42  A    between atoms: _117  and  _118
REMARK   43  A    between atoms: _117  and  _120
REMARK   44  A    between atoms: _120  and  _121
REMARK   45  A    between atoms: _121  and  _123
REMARK   46  A    between atoms: _123  and  ZN_380
REMARK   47  A    between atoms: _124  and  _126
REMARK   48  A    between atoms: _126  and  _127
REMARK   49  A    between atoms: _126  and  _129
REMARK   50  A    between atoms: _129  and  _130
REMARK   51  A    between atoms: _136  and  _138
REMARK   52  A    between atoms: _138  and  _139
REMARK   53  A    between atoms: _138  and  _141
REMARK   54  A    between atoms: _141  and  _142
REMARK   55  A    between atoms: _147  and  _149
REMARK   56  A    between atoms: _149  and  _150
REMARK   57  A    between atoms: _149  and  _152
REMARK   58  A    between atoms: _152  and  _153
REMARK   59  A    between atoms: _153  and  _154
REMARK   60  A    between atoms: _157  and  _159
REMARK   61  A    between atoms: _159  and  _160
REMARK   62  A    between atoms: _159  and  _162
REMARK   63  A    between atoms: _162  and  _163
REMARK   64  A    between atoms: _163  and  _164
REMARK   65  A    between atoms: _167  and  _169
REMARK   66  A    between atoms: _169  and  _170
REMARK   67  A    between atoms: _169  and  _172
REMARK   68  A    between atoms: _172  and  _173
REMARK   69  A    between atoms: _176  and  _178
REMARK   70  A    between atoms: _178  and  _179
REMARK   71  A    between atoms: _178  and  _181
REMARK   72  A    between atoms: _181  and  _182
REMARK   73  A    between atoms: _183  and  ZN_380
REMARK   74  A    between atoms: _187  and  _189
REMARK   75  A    between atoms: _189  and  _190
REMARK   76  A    between atoms: _189  and  _192
REMARK   77  A    between atoms: _192  and  _193
REMARK   78  A    between atoms: _196  and  _198
REMARK   79  A    between atoms: _198  and  _199
REMARK   80  A    between atoms: _198  and  _201
REMARK   81  A    between atoms: _204  and  _206
REMARK   82  A    between atoms: _206  and  _207
REMARK   83  A    between atoms: _206  and  _209
REMARK   84  A    between atoms: _209  and  _210
REMARK   85  A    between atoms: _215  and  _217
REMARK   86  A    between atoms: _217  and  _218
REMARK   87  A    between atoms: _217  and  _220
REMARK   88  A    between atoms: _220  and  _221
REMARK   89  A    between atoms: _227  and  _229
REMARK   90  A    between atoms: _229  and  _230
REMARK   91  A    between atoms: _229  and  _232
REMARK   92  A    between atoms: _235  and  _237
REMARK   93  A    between atoms: _237  and  _238
REMARK   94  A    between atoms: _237  and  _240
REMARK   95  A    between atoms: _240  and  _241
REMARK   96  A    between atoms: _244  and  _246
REMARK   97  A    between atoms: _246  and  _247
REMARK   98  A    between atoms: _246  and  _249
REMARK   99  A    between atoms: _252  and  _254
REMARK  100  A    between atoms: _254  and  _255
REMARK  101  A    between atoms: _254  and  _257
REMARK  102  A    between atoms: _257  and  _258
REMARK  103  A    between atoms: _261  and  _263
REMARK  104  A    between atoms: _263  and  _264
REMARK  105  A    between atoms: _263  and  _266
REMARK  106  A    between atoms: _266  and  _267
REMARK  107  A    between atoms: _269  and  _271
REMARK  108  A    between atoms: _271  and  _272
REMARK  109  A    between atoms: _271  and  _274
REMARK  110  A    between atoms: _274  and  _275
REMARK  111  A    between atoms: _278  and  _280
REMARK  112  A    between atoms: _280  and  _281
REMARK  113  A    between atoms: _280  and  _283
REMARK  114  A    between atoms: _283  and  _284
REMARK  115  A    between atoms: _287  and  _289
REMARK  116  A    between atoms: _289  and  _290
REMARK  117  A    between atoms: _289  and  _292
REMARK  118  A    between atoms: _292  and  _293
REMARK  119  A    between atoms: _297  and  _298
REMARK  120  A    between atoms: _304  and  _305
REMARK  121  A    between atoms: _310  and  _312
REMARK  122  A    between atoms: _312  and  _313
REMARK  123  A    between atoms: _312  and  _315
REMARK  124  A    between atoms: _315  and  _316
REMARK  125  A    between atoms: _319  and  _321
REMARK  126  A    between atoms: _321  and  _322
REMARK  127  A    between atoms: _321  and  _324
REMARK  128  A    between atoms: _324  and  _325
REMARK  129  A    between atoms: _328  and  _330
REMARK  130  A    between atoms: _330  and  _331
REMARK  131  A    between atoms: _330  and  _333
REMARK  132  A    between atoms: _336  and  _338
REMARK  133  A    between atoms: _338  and  _339
REMARK  134  A    between atoms: _338  and  _341
REMARK  135  A    between atoms: _341  and  _342
REMARK  136  A    between atoms: _352  and  _354
REMARK  137  A    between atoms: _354  and  _355
REMARK  138  A    between atoms: _354  and  _357
REMARK  139  A    between atoms: _357  and  _358
REMARK  140  A    between atoms: _363  and  _365
REMARK  141  A    between atoms: _365  and  _366
REMARK  142  A    between atoms: _365  and  _368
REMARK  143  A    between atoms: _368  and  _369
REMARK  144  A    between atoms: _369  and  _370
REMARK  145  A    between atoms: _370  and  _371
REMARK                            x       y       z     vdW  Elec       q    Type
REMARK                         _______ _______ _______ _____ _____    ______ ____
ROOT
ATOM      1  CA  LEU A   1      11.452   8.503  21.510  0.00  0.00    +0.133 C 
ENDROOT
BRANCH   1   2
ATOM      2  N   LEU A   1      12.061   9.501  22.440  0.00  0.00    -0.239 NA
ATOM      3  H   LEU A   1      12.560   9.172  23.291  0.00  0.00    +0.142 HD
ENDBRANCH   1   2
BRANCH   1   4
ATOM      4  C   LEU A   1      10.520   7.587  22.266  0.00  0.00    +0.224 C 
ATOM      5  O   LEU A   1      10.754   7.286  23.447  0.00  0.00    -0.287 OA
ENDBRANCH   1   4
BRANCH   1   6
ATOM      6  CB  LEU A   1      12.501   7.643  20.824  0.00  0.00    +0.025 C 
BRANCH   6   7
ATOM      7  CG  LEU A   1      13.454   8.425  19.902  0.00  0.00    +0.002 C 
ATOM      8  CD2 LEU A   1      14.310   7.336  19.251  0.00  0.00    +0.000 C 
ATOM      9  CD1 LEU A   1      12.786   9.344  18.782  0.00  0.00    +0.000 C 
ENDBRANCH   6   7
ENDBRANCH   1   6
TORSDOF 4
REMARK  Name = ../refined-set-2016/4jss/4jss_pocket.pdb
REMARK  145 active torsions:
REMARK  status: ('A' for Active; 'I' for Inactive)
REMARK    1  A    between atoms: _1  and  _3
REMARK    2  A    between atoms: _3  and  _4
REMARK    3  A    between atoms: _3  and  _6
REMARK    4  A    between atoms: _6  and  _7
REMARK    5  A    between atoms: _17  and  _19
REMARK    6  A    between atoms: _19  and  _20
REMARK    7  A    between atoms: _19  and  _22
REMARK    8  A    between atoms: _22  and  _23
REMARK    9  A    between atoms: _28  and  _29
REMARK   10  A    between atoms: _31  and  _33
REMARK   11  A    between atoms: _33  and  _34
REMARK   12  A    between atoms: _33  and  _36
REMARK   13  A    between atoms: _36  and  _37
REMARK   14  A    between atoms: _42  and  _44
REMARK   15  A    between atoms: _44  and  _45
REMARK   16  A    between atoms: _44  and  _47
REMARK   17  A    between atoms: _47  and  _48
REMARK   18  A    between atoms: _53  and  _55
REMARK   19  A    between atoms: _55  and  _56
REMARK   20  A    between atoms: _59  and  _61
REMARK   21  A    between atoms: _61  and  _62
REMARK   22  A    between atoms: _61  and  _64
REMARK   23  A    between atoms: _64  and  _65
REMARK   24  A    between atoms: _71  and  _73
REMARK   25  A    between atoms: _73  and  _74
REMARK   26  A    between atoms: _73  and  _76
REMARK   27  A    between atoms: _76  and  _77
REMARK   28  A    between atoms: _82  and  _84
REMARK   29  A    between atoms: _84  and  _85
REMARK   30  A    between atoms: _84  and  _87
REMARK   31  A    between atoms: _87  and  _88
REMARK   32  A    between atoms: _91  and  _93
REMARK   33  A    between atoms: _93  and  _94
REMARK   34  A    between atoms: _93  and  _96
REMARK   35  A    between atoms: _96  and  _97
REMARK   36  A    between atoms: _97  and  _98
REMARK   37  A    between atoms: _103  and  _105
REMARK   38  A    between atoms: _105  and  _106
REMARK   39  A    between atoms: _105  and  _108
REMARK   40  A    between atoms: _108  and  _109
REMARK   41  A    between atoms: _115  and  _117
REMARK   42  A    between atoms: _117  and  _118
REMARK   43  A    between atoms: _117  and  _120
REMARK   44  A    between atoms: _120  and  _121
REMARK   45  A    between atoms: _121  and  _123
REMARK   46  A    between atoms: _123  and  ZN_380
REMARK   47  A    between atoms: _124  and  _126
REMARK   48  A    between atoms: _126  and  _127
REMARK   49  A    between atoms: _126  and  _129
REMARK   50  A    between atoms: _129  and  _130
REMARK   51  A    between atoms: _136  and  _138
REMARK   52  A    between atoms: _138  and  _139
REMARK   53  A    between atoms: _138  and  _141
REMARK   54  A    between atoms: _141  and  _142
REMARK   55  A    between atoms: _147  and  _149
REMARK   56  A    between atoms: _149  and  _150
REMARK   57  A    between atoms: _149  and  _152
REMARK   58  A    between atoms: _152  and  _153
REMARK   59  A    between atoms: _153  and  _154
REMARK   60  A    between atoms: _157  and  _159
REMARK   61  A    between atoms: _159  and  _160
REMARK   62  A    between atoms: _159  and  _162
REMARK   63  A    between atoms: _162  and  _163
REMARK   64  A    between atoms: _163  and  _164
REMARK   65  A    between atoms: _167  and  _169
REMARK   66  A    between atoms: _169  and  _170
REMARK   67  A    between atoms: _169  and  _172
REMARK   68  A    between atoms: _172  and  _173
REMARK   69  A    between atoms: _176  and  _178
REMARK   70  A    between atoms: _178  and  _179
REMARK   71  A    between atoms: _178  and  _181
REMARK   72  A    between atoms: _181  and  _182
REMARK   73  A    between atoms: _183  and  ZN_380
REMARK   74  A    between atoms: _187  and  _189
REMARK   75  A    between atoms: _189  and  _190
REMARK   76  A    between atoms: _189  and  _192
REMARK   77  A    between atoms: _192  and  _193
REMARK   78  A    between atoms: _196  and  _198
REMARK   79  A    between atoms: _198  and  _199
REMARK   80  A    between atoms: _198  and  _201
REMARK   81  A    between atoms: _204  and  _206
REMARK   82  A    between atoms: _206  and  _207
REMARK   83  A    between atoms: _206  and  _209
REMARK   84  A    between atoms: _209  and  _210
REMARK   85  A    between atoms: _215  and  _217
REMARK   86  A    between atoms: _217  and  _218
REMARK   87  A    between atoms: _217  and  _220
REMARK   88  A    between atoms: _220  and  _221
REMARK   89  A    between atoms: _227  and  _229
REMARK   90  A    between atoms: _229  and  _230
REMARK   91  A    between atoms: _229  and  _232
REMARK   92  A    between atoms: _235  and  _237
REMARK   93  A    between atoms: _237  and  _238
REMARK   94  A    between atoms: _237  and  _240
REMARK   95  A    between atoms: _240  and  _241
REMARK   96  A    between atoms: _244  and  _246
REMARK   97  A    between atoms: _246  and  _247
REMARK   98  A    between atoms: _246  and  _249
REMARK   99  A    between atoms: _252  and  _254
REMARK  100  A    between atoms: _254  and  _255
REMARK  101  A    between atoms: _254  and  _257
REMARK  102  A    between atoms: _257  and  _258
REMARK  103  A    between atoms: _261  and  _263
REMARK  104  A    between atoms: _263  and  _264
REMARK  105  A    between atoms: _263  and  _266
REMARK  106  A    between atoms: _266  and  _267
REMARK  107  A    between atoms: _269  and  _271
REMARK  108  A    between atoms: _271  and  _272
REMARK  109  A    between atoms: _271  and  _274
REMARK  110  A    between atoms: _274  and  _275
REMARK  111  A    between atoms: _278  and  _280
REMARK  112  A    between atoms: _280  and  _281
REMARK  113  A    between atoms: _280  and  _283
REMARK  114  A    between atoms: _283  and  _284
REMARK  115  A    between atoms: _287  and  _289
REMARK  116  A    between atoms: _289  and  _290
REMARK  117  A    between atoms: _289  and  _292
REMARK  118  A    between atoms: _292  and  _293
REMARK  119  A    between atoms: _297  and  _298
REMARK  120  A    between atoms: _304  and  _305
REMARK  121  A    between atoms: _310  and  _312
REMARK  122  A    between atoms: _312  and  _313
REMARK  123  A    between atoms: _312  and  _315
REMARK  124  A    between atoms: _315  and  _316
REMARK  125  A    between atoms: _319  and  _321
REMARK  126  A    between atoms: _321  and  _322
REMARK  127  A    between atoms: _321  and  _324
REMARK  128  A    between atoms: _324  and  _325
REMARK  129  A    between atoms: _328  and  _330
REMARK  130  A    between atoms: _330  and  _331
REMARK  131  A    between atoms: _330  and  _333
REMARK  132  A    between atoms: _336  and  _338
REMARK  133  A    between atoms: _338  and  _339
REMARK  134  A    between atoms: _338  and  _341
REMARK  135  A    between atoms: _341  and  _342
REMARK  136  A    between atoms: _352  and  _354
REMARK  137  A    between atoms: _354  and  _355
REMARK  138  A    between atoms: _354  and  _357
REMARK  139  A    between atoms: _357  and  _358
REMARK  140  A    between atoms: _363  and  _365
REMARK  141  A    between atoms: _365  and  _366
REMARK  142  A    between atoms: _365  and  _368
REMARK  143  A    between atoms: _368  and  _369
REMARK  144  A    between atoms: _369  and  _370
REMARK  145  A    between atoms: _370  and  _371
REMARK                            x       y       z     vdW  Elec       q    Type
REMARK                         _______ _______ _______ _____ _____    ______ ____
ROOT
ATOM      1  C   VAL A   1       7.991   1.609  20.714  0.00  0.00    +0.238 C 
ATOM      2  O   VAL A   1       8.059   1.048  21.819  0.00  0.00    -0.274 OA
ATOM      3  N   LEU A   2       7.027   1.355  19.837  0.00  0.00    -0.298 N 
ATOM      4  H   LEU A   2       6.964   1.937  18.978  0.00  0.00    +0.150 HD
ENDROOT
BRANCH   1   5
ATOM      5  CA  VAL A   1       8.984   2.637  20.213  0.00  0.00    +0.145 C 
BRANCH   5   6
ATOM      6  CB  VAL A   1      10.303   1.961  19.925  0.00  0.00    +0.025 C 
ATOM      7  CG2 VAL A   1      11.339   3.140  19.525  0.00  0.00    +0.002 C 
ATOM      8  CG1 VAL A   1      10.120   0.965  18.705  0.00  0.00    +0.002 C 
ENDBRANCH   5   6
BRANCH   5   9
ATOM      9  N   VAL A   1       9.031   3.655  21.265  0.00  0.00    -0.238 NA
ATOM     10  H   VAL A   1       9.324   3.410  22.232  0.00  0.00    +0.142 HD
ENDBRANCH   5   9
ENDBRANCH   1   5
BRANCH   3  11
ATOM     11  CA  LEU A   2       6.037   0.269  20.041  0.00  0.00    +0.137 C 
BRANCH  11  12
ATOM     12  C   LEU A   2       6.588  -0.939  19.398  0.00  0.00    +0.227 C 
ATOM     13  O   LEU A   2       6.784  -1.003  18.214  0.00  0.00    -0.286 OA
ENDBRANCH  11  12
BRANCH  11  14
ATOM     14  CB  LEU A   2       4.692   0.696  19.406  0.00  0.00    +0.028 C 
BRANCH  14  15
ATOM     15  CG  LEU A   2       3.525  -0.312  19.581  0.00  0.00    +0.002 C 
ATOM     16  CD2 LEU A   2       3.166  -0.573  21.038  0.00  0.00    +0.000 C 
ATOM     17  CD1 LEU A   2       2.259   0.360  18.852  0.00  0.00    +0.000 C 
ENDBRANCH  14  15
ENDBRANCH  11  14
ENDBRANCH   3  11
TORSDOF 7
REMARK  Name = ../refined-set-2016/4jss/4jss_pocket.pdb
REMARK  145 active torsions:
REMARK  status: ('A' for Active; 'I' for Inactive)
REMARK    1  A    between atoms: _1  and  _3
REMARK    2  A    between atoms: _3  and  _4
REMARK    3  A    between atoms: _3  and  _6
REMARK    4  A    between atoms: _6  and  _7
REMARK    5  A    between atoms: _17  and  _19
REMARK    6  A    between atoms: _19  and  _20
REMARK    7  A    between atoms: _19  and  _22
REMARK    8  A    between atoms: _22  and  _23
REMARK    9  A    between atoms: _28  and  _29
REMARK   10  A    between atoms: _31  and  _33
REMARK   11  A    between atoms: _33  and  _34
REMARK   12  A    between atoms: _33  and  _36
REMARK   13  A    between atoms: _36  and  _37
REMARK   14  A    between atoms: _42  and  _44
REMARK   15  A    between atoms: _44  and  _45
REMARK   16  A    between atoms: _44  and  _47
REMARK   17  A    between atoms: _47  and  _48
REMARK   18  A    between atoms: _53  and  _55
REMARK   19  A    between atoms: _55  and  _56
REMARK   20  A    between atoms: _59  and  _61
REMARK   21  A    between atoms: _61  and  _62
REMARK   22  A    between atoms: _61  and  _64
REMARK   23  A    between atoms: _64  and  _65
REMARK   24  A    between atoms: _71  and  _73
REMARK   25  A    between atoms: _73  and  _74
REMARK   26  A    between atoms: _73  and  _76
REMARK   27  A    between atoms: _76  and  _77
REMARK   28  A    between atoms: _82  and  _84
REMARK   29  A    between atoms: _84  and  _85
REMARK   30  A    between atoms: _84  and  _87
REMARK   31  A    between atoms: _87  and  _88
REMARK   32  A    between atoms: _91  and  _93
REMARK   33  A    between atoms: _93  and  _94
REMARK   34  A    between atoms: _93  and  _96
REMARK   35  A    between atoms: _96  and  _97
REMARK   36  A    between atoms: _97  and  _98
REMARK   37  A    between atoms: _103  and  _105
REMARK   38  A    between atoms: _105  and  _106
REMARK   39  A    between atoms: _105  and  _108
REMARK   40  A    between atoms: _108  and  _109
REMARK   41  A    between atoms: _115  and  _117
REMARK   42  A    between atoms: _117  and  _118
REMARK   43  A    between atoms: _117  and  _120
REMARK   44  A    between atoms: _120  and  _121
REMARK   45  A    between atoms: _121  and  _123
REMARK   46  A    between atoms: _123  and  ZN_380
REMARK   47  A    between atoms: _124  and  _126
REMARK   48  A    between atoms: _126  and  _127
REMARK   49  A    between atoms: _126  and  _129
REMARK   50  A    between atoms: _129  and  _130
REMARK   51  A    between atoms: _136  and  _138
REMARK   52  A    between atoms: _138  and  _139
REMARK   53  A    between atoms: _138  and  _141
REMARK   54  A    between atoms: _141  and  _142
REMARK   55  A    between atoms: _147  and  _149
REMARK   56  A    between atoms: _149  and  _150
REMARK   57  A    between atoms: _149  and  _152
REMARK   58  A    between atoms: _152  and  _153
REMARK   59  A    between atoms: _153  and  _154
REMARK   60  A    between atoms: _157  and  _159
REMARK   61  A    between atoms: _159  and  _160
REMARK   62  A    between atoms: _159  and  _162
REMARK   63  A    between atoms: _162  and  _163
REMARK   64  A    between atoms: _163  and  _164
REMARK   65  A    between atoms: _167  and  _169
REMARK   66  A    between atoms: _169  and  _170
REMARK   67  A    between atoms: _169  and  _172
REMARK   68  A    between atoms: _172  and  _173
REMARK   69  A    between atoms: _176  and  _178
REMARK   70  A    between atoms: _178  and  _179
REMARK   71  A    between atoms: _178  and  _181
REMARK   72  A    between atoms: _181  and  _182
REMARK   73  A    between atoms: _183  and  ZN_380
REMARK   74  A    between atoms: _187  and  _189
REMARK   75  A    between atoms: _189  and  _190
REMARK   76  A    between atoms: _189  and  _192
REMARK   77  A    between atoms: _192  and  _193
REMARK   78  A    between atoms: _196  and  _198
REMARK   79  A    between atoms: _198  and  _199
REMARK   80  A    between atoms: _198  and  _201
REMARK   81  A    between atoms: _204  and  _206
REMARK   82  A    between atoms: _206  and  _207
REMARK   83  A    between atoms: _206  and  _209
REMARK   84  A    between atoms: _209  and  _210
REMARK   85  A    between atoms: _215  and  _217
REMARK   86  A    between atoms: _217  and  _218
REMARK   87  A    between atoms: _217  and  _220
REMARK   88  A    between atoms: _220  and  _221
REMARK   89  A    between atoms: _227  and  _229
REMARK   90  A    between atoms: _229  and  _230
REMARK   91  A    between atoms: _229  and  _232
REMARK   92  A    between atoms: _235  and  _237
REMARK   93  A    between atoms: _237  and  _238
REMARK   94  A    between atoms: _237  and  _240
REMARK   95  A    between atoms: _240  and  _241
REMARK   96  A    between atoms: _244  and  _246
REMARK   97  A    between atoms: _246  and  _247
REMARK   98  A    between atoms: _246  and  _249
REMARK   99  A    between atoms: _252  and  _254
REMARK  100  A    between atoms: _254  and  _255
REMARK  101  A    between atoms: _254  and  _257
REMARK  102  A    between atoms: _257  and  _258
REMARK  103  A    between atoms: _261  and  _263
REMARK  104  A    between atoms: _263  and  _264
REMARK  105  A    between atoms: _263  and  _266
REMARK  106  A    between atoms: _266  and  _267
REMARK  107  A    between atoms: _269  and  _271
REMARK  108  A    between atoms: _271  and  _272
REMARK  109  A    between atoms: _271  and  _274
REMARK  110  A    between atoms: _274  and  _275
REMARK  111  A    between atoms: _278  and  _280
REMARK  112  A    between atoms: _280  and  _281
REMARK  113  A    between atoms: _280  and  _283
REMARK  114  A    between atoms: _283  and  _284
REMARK  115  A    between atoms: _287  and  _289
REMARK  116  A    between atoms: _289  and  _290
REMARK  117  A    between atoms: _289  and  _292
REMARK  118  A    between atoms: _292  and  _293
REMARK  119  A    between atoms: _297  and  _298
REMARK  120  A    between atoms: _304  and  _305
REMARK  121  A    between atoms: _310  and  _312
REMARK  122  A    between atoms: _312  and  _313
REMARK  123  A    between atoms: _312  and  _315
REMARK  124  A    between atoms: _315  and  _316
REMARK  125  A    between atoms: _319  and  _321
REMARK  126  A    between atoms: _321  and  _322
REMARK  127  A    between atoms: _321  and  _324
REMARK  128  A    between atoms: _324  and  _325
REMARK  129  A    between atoms: _328  and  _330
REMARK  130  A    between atoms: _330  and  _331
REMARK  131  A    between atoms: _330  and  _333
REMARK  132  A    between atoms: _336  and  _338
REMARK  133  A    between atoms: _338  and  _339
REMARK  134  A    between atoms: _338  and  _341
REMARK  135  A    between atoms: _341  and  _342
REMARK  136  A    between atoms: _352  and  _354
REMARK  137  A    between atoms: _354  and  _355
REMARK  138  A    between atoms: _354  and  _357
REMARK  139  A    between atoms: _357  and  _358
REMARK  140  A    between atoms: _363  and  _365
REMARK  141  A    between atoms: _365  and  _366
REMARK  142  A    between atoms: _365  and  _368
REMARK  143  A    between atoms: _368  and  _369
REMARK  144  A    between atoms: _369  and  _370
REMARK  145  A    between atoms: _370  and  _371
REMARK                            x       y       z     vdW  Elec       q    Type
REMARK                         _______ _______ _______ _____ _____    ______ ____
ROOT
ATOM      1  C   THR A   4      21.571   1.125  16.304  0.00  0.00    +0.246 C 
ATOM      2  O   THR A   4      21.125   2.111  16.917  0.00  0.00    -0.273 OA
ATOM      3  N   PRO A   5      22.840   1.070  15.845  0.00  0.00    -0.272 N 
ATOM      4  CA  PRO A   5      23.671   2.264  15.943  0.00  0.00    +0.152 C 
ATOM      5  CB  PRO A   5      24.869   1.867  15.077  0.00  0.00    +0.031 C 
ATOM      6  CG  PRO A   5      25.027   0.413  15.435  0.00  0.00    +0.024 C 
ATOM      7  CD  PRO A   5      23.595  -0.100  15.360  0.00  0.00    +0.094 C 
ENDROOT
BRANCH   4   8
ATOM      8  C   PRO A   5      22.872   3.491  15.372  0.00  0.00    +0.244 C 
ATOM      9  N   PRO A   6      22.887   4.604  16.085  0.00  0.00    -0.272 N 
ATOM     10  CA  PRO A   6      23.837   4.956  17.136  0.00  0.00    +0.152 C 
ATOM     11  CB  PRO A   6      23.964   6.464  16.992  0.00  0.00    +0.031 C 
ATOM     12  CG  PRO A   6      22.675   6.908  16.484  0.00  0.00    +0.024 C 
ATOM     13  CD  PRO A   6      22.273   5.829  15.520  0.00  0.00    +0.094 C 
ATOM     14  O   PRO A   5      22.203   3.397  14.324  0.00  0.00    -0.273 OA
BRANCH  10  15
ATOM     15  C   PRO A   6      23.452   4.592  18.589  0.00  0.00    +0.241 C 
ATOM     16  O   PRO A   6      24.101   5.027  19.563  0.00  0.00    -0.273 OA
ATOM     17  N   LEU A   7      22.443   3.726  18.709  0.00  0.00    -0.297 N 
ATOM     18  H   LEU A   7      21.853   3.478  17.890  0.00  0.00    +0.150 HD
BRANCH  17  19
ATOM     19  CA  LEU A   7      22.185   3.125  20.045  0.00  0.00    +0.149 C 
BRANCH  19  20
ATOM     20  C   LEU A   7      21.796   4.151  21.130  0.00  0.00    +0.241 C 
ATOM     21  O   LEU A   7      22.024   3.930  22.317  0.00  0.00    -0.273 OA
ATOM     22  N   LEU A   8      21.115   5.226  20.672  0.00  0.00    -0.298 N 
ATOM     23  H   LEU A   8      20.722   5.251  19.709  0.00  0.00    +0.150 HD
BRANCH  22  24
ATOM     24  CA  LEU A   8      20.955   6.364  21.603  0.00  0.00    +0.137 C 
BRANCH  24  25
ATOM     25  C   LEU A   8      19.986   6.030  22.726  0.00  0.00    +0.227 C 
ATOM     26  O   LEU A   8      18.982   5.337  22.479  0.00  0.00    -0.286 OA
ENDBRANCH  24  25
BRANCH  24  27
ATOM     27  CB  LEU A   8      20.554   7.614  20.799  0.00  0.00    +0.028 C 
BRANCH  27  28
ATOM     28  CG  LEU A   8      21.671   8.056  19.786  0.00  0.00    +0.002 C 
ATOM     29  CD2 LEU A   8      22.836   8.622  20.444  0.00  0.00    +0.000 C 
ATOM     30  CD1 LEU A   8      20.993   9.078  18.900  0.00  0.00    +0.000 C 
ENDBRANCH  27  28
ENDBRANCH  24  27
ENDBRANCH  22  24
ENDBRANCH  19  20
BRANCH  19  31
ATOM     31  CB  LEU A   7      23.385   2.178  20.556  0.00  0.00    +0.029 C 
BRANCH  31  32
ATOM     32  CG  LEU A   7      23.757   1.116  19.476  0.00  0.00    +0.002 C 
ATOM     33  CD2 LEU A   7      25.107   0.460  19.855  0.00  0.00    +0.000 C 
ATOM     34  CD1 LEU A   7      22.630   0.037  19.344  0.00  0.00    +0.000 C 
ENDBRANCH  31  32
ENDBRANCH  19  31
ENDBRANCH  17  19
ENDBRANCH  10  15
ENDBRANCH   4   8
BRANCH   1  35
ATOM     35  CA  THR A   4      20.687  -0.074  16.004  0.00  0.00    +0.176 C 
BRANCH  35  38
ATOM     36  C   THR A   3      19.711  -1.371  17.948  0.00  0.00    +0.243 C 
ATOM     37  O   THR A   3      20.358  -2.389  17.747  0.00  0.00    -0.273 OA
ATOM     38  N   THR A   4      19.778  -0.283  17.175  0.00  0.00    -0.295 N 
ATOM     39  H   THR A   4      19.133   0.498  17.411  0.00  0.00    +0.150 HD
BRANCH  36  40
ATOM     40  CA  THR A   3      18.714  -1.266  19.129  0.00  0.00    +0.176 C 
BRANCH  40  43
ATOM     41  C   LEU A   2      18.466   1.059  19.923  0.00  0.00    +0.241 C 
ATOM     42  O   LEU A   2      19.536   0.930  20.601  0.00  0.00    -0.273 OA
ATOM     43  N   THR A   3      17.978   0.085  19.164  0.00  0.00    -0.295 N 
ATOM     44  H   THR A   3      17.114   0.232  18.604  0.00  0.00    +0.150 HD
BRANCH  41  45
ATOM     45  CA  LEU A   2      17.675   2.322  19.914  0.00  0.00    +0.149 C 
BRANCH  45  48
ATOM     46  C   SER A   1      17.241   2.302  22.297  0.00  0.00    +0.241 C 
ATOM     47  O   SER A   1      16.463   1.324  22.143  0.00  0.00    -0.274 OA
ATOM     48  N   LEU A   2      17.770   2.936  21.271  0.00  0.00    -0.297 N 
ATOM     49  H   LEU A   2      18.247   3.851  21.404  0.00  0.00    +0.150 HD
BRANCH  46  50
ATOM     50  CA  SER A   1      17.697   2.740  23.690  0.00  0.00    +0.174 C 
BRANCH  50  51
ATOM     51  N   SER A   1      16.939   2.054  24.684  0.00  0.00    -0.236 NA
ATOM     52  H   SER A   1      16.734   1.040  24.581  0.00  0.00    +0.142 HD
ENDBRANCH  50  51
BRANCH  50  53
ATOM     53  CB  SER A   1      19.182   2.320  23.924  0.00  0.00    +0.163 C 
BRANCH  53  54
ATOM     54  OG  SER A   1      19.413   1.015  23.320  0.00  0.00    -0.380 OA
ATOM     55  H   SER A   1      19.231   1.066  22.348  0.00  0.00    +0.211 HD
ENDBRANCH  53  54
ENDBRANCH  50  53
ENDBRANCH  46  50
ENDBRANCH  45  48
BRANCH  45  56
ATOM     56  CB  LEU A   2      18.274   3.272  18.885  0.00  0.00    +0.029 C 
BRANCH  56  57
ATOM     57  CG  LEU A   2      17.517   4.618  18.670  0.00  0.00    +0.002 C 
ATOM     58  CD2 LEU A   2      16.182   4.230  18.065  0.00  0.00    +0.000 C 
ATOM     59  CD1 LEU A   2      18.305   5.620  17.750  0.00  0.00    +0.000 C 
ENDBRANCH  56  57
ENDBRANCH  45  56
ENDBRANCH  41  45
ENDBRANCH  40  43
BRANCH  40  60
ATOM     60  CB  THR A   3      17.706  -2.405  18.937  0.00  0.00    +0.137 C 
ATOM     61  CG2 THR A   3      16.715  -2.450  20.094  0.00  0.00    +0.034 C 
BRANCH  60  62
ATOM     62  OG1 THR A   3      17.000  -2.214  17.697  0.00  0.00    -0.382 OA
ATOM     63  HG1 THR A   3      16.349  -2.949  17.573  0.00  0.00    +0.210 HD
ENDBRANCH  60  62
ENDBRANCH  40  60
ENDBRANCH  36  40
ENDBRANCH  35  38
BRANCH  35  64
ATOM     64  CB  THR A   4      19.906   0.210  14.749  0.00  0.00    +0.137 C 
ATOM     65  CG2 THR A   4      19.109  -1.084  14.293  0.00  0.00    +0.034 C 
BRANCH  64  66
ATOM     66  OG1 THR A   4      18.904   1.194  15.006  0.00  0.00    -0.382 OA
ATOM     67  HG1 THR A   4      19.335   2.029  15.317  0.00  0.00    +0.210 HD
ENDBRANCH  64  66
ENDBRANCH  35  64
ENDBRANCH   1  35
TORSDOF 26
REMARK  Name = ../refined-set-2016/4jss/4jss_pocket.pdb
REMARK  145 active torsions:
REMARK  status: ('A' for Active; 'I' for Inactive)
REMARK    1  A    between atoms: _1  and  _3
REMARK    2  A    between atoms: _3  and  _4
REMARK    3  A    between atoms: _3  and  _6
REMARK    4  A    between atoms: _6  and  _7
REMARK    5  A    between atoms: _17  and  _19
REMARK    6  A    between atoms: _19  and  _20
REMARK    7  A    between atoms: _19  and  _22
REMARK    8  A    between atoms: _22  and  _23
REMARK    9  A    between atoms: _28  and  _29
REMARK   10  A    between atoms: _31  and  _33
REMARK   11  A    between atoms: _33  and  _34
REMARK   12  A    between atoms: _33  and  _36
REMARK   13  A    between atoms: _36  and  _37
REMARK   14  A    between atoms: _42  and  _44
REMARK   15  A    between atoms: _44  and  _45
REMARK   16  A    between atoms: _44  and  _47
REMARK   17  A    between atoms: _47  and  _48
REMARK   18  A    between atoms: _53  and  _55
REMARK   19  A    between atoms: _55  and  _56
REMARK   20  A    between atoms: _59  and  _61
REMARK   21  A    between atoms: _61  and  _62
REMARK   22  A    between atoms: _61  and  _64
REMARK   23  A    between atoms: _64  and  _65
REMARK   24  A    between atoms: _71  and  _73
REMARK   25  A    between atoms: _73  and  _74
REMARK   26  A    between atoms: _73  and  _76
REMARK   27  A    between atoms: _76  and  _77
REMARK   28  A    between atoms: _82  and  _84
REMARK   29  A    between atoms: _84  and  _85
REMARK   30  A    between atoms: _84  and  _87
REMARK   31  A    between atoms: _87  and  _88
REMARK   32  A    between atoms: _91  and  _93
REMARK   33  A    between atoms: _93  and  _94
REMARK   34  A    between atoms: _93  and  _96
REMARK   35  A    between atoms: _96  and  _97
REMARK   36  A    between atoms: _97  and  _98
REMARK   37  A    between atoms: _103  and  _105
REMARK   38  A    between atoms: _105  and  _106
REMARK   39  A    between atoms: _105  and  _108
REMARK   40  A    between atoms: _108  and  _109
REMARK   41  A    between atoms: _115  and  _117
REMARK   42  A    between atoms: _117  and  _118
REMARK   43  A    between atoms: _117  and  _120
REMARK   44  A    between atoms: _120  and  _121
REMARK   45  A    between atoms: _121  and  _123
REMARK   46  A    between atoms: _123  and  ZN_380
REMARK   47  A    between atoms: _124  and  _126
REMARK   48  A    between atoms: _126  and  _127
REMARK   49  A    between atoms: _126  and  _129
REMARK   50  A    between atoms: _129  and  _130
REMARK   51  A    between atoms: _136  and  _138
REMARK   52  A    between atoms: _138  and  _139
REMARK   53  A    between atoms: _138  and  _141
REMARK   54  A    between atoms: _141  and  _142
REMARK   55  A    between atoms: _147  and  _149
REMARK   56  A    between atoms: _149  and  _150
REMARK   57  A    between atoms: _149  and  _152
REMARK   58  A    between atoms: _152  and  _153
REMARK   59  A    between atoms: _153  and  _154
REMARK   60  A    between atoms: _157  and  _159
REMARK   61  A    between atoms: _159  and  _160
REMARK   62  A    between atoms: _159  and  _162
REMARK   63  A    between atoms: _162  and  _163
REMARK   64  A    between atoms: _163  and  _164
REMARK   65  A    between atoms: _167  and  _169
REMARK   66  A    between atoms: _169  and  _170
REMARK   67  A    between atoms: _169  and  _172
REMARK   68  A    between atoms: _172  and  _173
REMARK   69  A    between atoms: _176  and  _178
REMARK   70  A    between atoms: _178  and  _179
REMARK   71  A    between atoms: _178  and  _181
REMARK   72  A    between atoms: _181  and  _182
REMARK   73  A    between atoms: _183  and  ZN_380
REMARK   74  A    between atoms: _187  and  _189
REMARK   75  A    between atoms: _189  and  _190
REMARK   76  A    between atoms: _189  and  _192
REMARK   77  A    between atoms: _192  and  _193
REMARK   78  A    between atoms: _196  and  _198
REMARK   79  A    between atoms: _198  and  _199
REMARK   80  A    between atoms: _198  and  _201
REMARK   81  A    between atoms: _204  and  _206
REMARK   82  A    between atoms: _206  and  _207
REMARK   83  A    between atoms: _206  and  _209
REMARK   84  A    between atoms: _209  and  _210
REMARK   85  A    between atoms: _215  and  _217
REMARK   86  A    between atoms: _217  and  _218
REMARK   87  A    between atoms: _217  and  _220
REMARK   88  A    between atoms: _220  and  _221
REMARK   89  A    between atoms: _227  and  _229
REMARK   90  A    between atoms: _229  and  _230
REMARK   91  A    between atoms: _229  and  _232
REMARK   92  A    between atoms: _235  and  _237
REMARK   93  A    between atoms: _237  and  _238
REMARK   94  A    between atoms: _237  and  _240
REMARK   95  A    between atoms: _240  and  _241
REMARK   96  A    between atoms: _244  and  _246
REMARK   97  A    between atoms: _246  and  _247
REMARK   98  A    between atoms: _246  and  _249
REMARK   99  A    between atoms: _252  and  _254
REMARK  100  A    between atoms: _254  and  _255
REMARK  101  A    between atoms: _254  and  _257
REMARK  102  A    between atoms: _257  and  _258
REMARK  103  A    between atoms: _261  and  _263
REMARK  104  A    between atoms: _263  and  _264
REMARK  105  A    between atoms: _263  and  _266
REMARK  106  A    between atoms: _266  and  _267
REMARK  107  A    between atoms: _269  and  _271
REMARK  108  A    between atoms: _271  and  _272
REMARK  109  A    between atoms: _271  and  _274
REMARK  110  A    between atoms: _274  and  _275
REMARK  111  A    between atoms: _278  and  _280
REMARK  112  A    between atoms: _280  and  _281
REMARK  113  A    between atoms: _280  and  _283
REMARK  114  A    between atoms: _283  and  _284
REMARK  115  A    between atoms: _287  and  _289
REMARK  116  A    between atoms: _289  and  _290
REMARK  117  A    between atoms: _289  and  _292
REMARK  118  A    between atoms: _292  and  _293
REMARK  119  A    between atoms: _297  and  _298
REMARK  120  A    between atoms: _304  and  _305
REMARK  121  A    between atoms: _310  and  _312
REMARK  122  A    between atoms: _312  and  _313
REMARK  123  A    between atoms: _312  and  _315
REMARK  124  A    between atoms: _315  and  _316
REMARK  125  A    between atoms: _319  and  _321
REMARK  126  A    between atoms: _321  and  _322
REMARK  127  A    between atoms: _321  and  _324
REMARK  128  A    between atoms: _324  and  _325
REMARK  129  A    between atoms: _328  and  _330
REMARK  130  A    between atoms: _330  and  _331
REMARK  131  A    between atoms: _330  and  _333
REMARK  132  A    between atoms: _336  and  _338
REMARK  133  A    between atoms: _338  and  _339
REMARK  134  A    between atoms: _338  and  _341
REMARK  135  A    between atoms: _341  and  _342
REMARK  136  A    between atoms: _352  and  _354
REMARK  137  A    between atoms: _354  and  _355
REMARK  138  A    between atoms: _354  and  _357
REMARK  139  A    between atoms: _357  and  _358
REMARK  140  A    between atoms: _363  and  _365
REMARK  141  A    between atoms: _365  and  _366
REMARK  142  A    between atoms: _365  and  _368
REMARK  143  A    between atoms: _368  and  _369
REMARK  144  A    between atoms: _369  and  _370
REMARK  145  A    between atoms: _370  and  _371
REMARK                            x       y       z     vdW  Elec       q    Type
REMARK                         _______ _______ _______ _____ _____    ______ ____
ROOT
ATOM      1  CA  VAL A   1      13.530   5.401  24.087  0.00  0.00    +0.133 C 
ENDROOT
BRANCH   1   2
ATOM      2  CB  VAL A   1      13.879   4.124  23.282  0.00  0.00    +0.023 C 
ATOM      3  CG2 VAL A   1      12.479   3.381  22.890  0.00  0.00    +0.002 C 
ATOM      4  CG1 VAL A   1      14.663   4.498  21.970  0.00  0.00    +0.002 C 
ENDBRANCH   1   2
BRANCH   1   5
ATOM      5  N   VAL A   1      14.773   6.115  24.433  0.00  0.00    -0.239 NA
ATOM      6  H   VAL A   1      15.578   5.578  24.814  0.00  0.00    +0.142 HD
ENDBRANCH   1   5
BRANCH   1   7
ATOM      7  C   VAL A   1      12.749   4.913  25.279  0.00  0.00    +0.224 C 
ATOM      8  O   VAL A   1      13.301   4.231  26.190  0.00  0.00    -0.287 OA
ENDBRANCH   1   7
TORSDOF 3
REMARK  Name = ../refined-set-2016/4jss/4jss_pocket.pdb
REMARK  145 active torsions:
REMARK  status: ('A' for Active; 'I' for Inactive)
REMARK    1  A    between atoms: _1  and  _3
REMARK    2  A    between atoms: _3  and  _4
REMARK    3  A    between atoms: _3  and  _6
REMARK    4  A    between atoms: _6  and  _7
REMARK    5  A    between atoms: _17  and  _19
REMARK    6  A    between atoms: _19  and  _20
REMARK    7  A    between atoms: _19  and  _22
REMARK    8  A    between atoms: _22  and  _23
REMARK    9  A    between atoms: _28  and  _29
REMARK   10  A    between atoms: _31  and  _33
REMARK   11  A    between atoms: _33  and  _34
REMARK   12  A    between atoms: _33  and  _36
REMARK   13  A    between atoms: _36  and  _37
REMARK   14  A    between atoms: _42  and  _44
REMARK   15  A    between atoms: _44  and  _45
REMARK   16  A    between atoms: _44  and  _47
REMARK   17  A    between atoms: _47  and  _48
REMARK   18  A    between atoms: _53  and  _55
REMARK   19  A    between atoms: _55  and  _56
REMARK   20  A    between atoms: _59  and  _61
REMARK   21  A    between atoms: _61  and  _62
REMARK   22  A    between atoms: _61  and  _64
REMARK   23  A    between atoms: _64  and  _65
REMARK   24  A    between atoms: _71  and  _73
REMARK   25  A    between atoms: _73  and  _74
REMARK   26  A    between atoms: _73  and  _76
REMARK   27  A    between atoms: _76  and  _77
REMARK   28  A    between atoms: _82  and  _84
REMARK   29  A    between atoms: _84  and  _85
REMARK   30  A    between atoms: _84  and  _87
REMARK   31  A    between atoms: _87  and  _88
REMARK   32  A    between atoms: _91  and  _93
REMARK   33  A    between atoms: _93  and  _94
REMARK   34  A    between atoms: _93  and  _96
REMARK   35  A    between atoms: _96  and  _97
REMARK   36  A    between atoms: _97  and  _98
REMARK   37  A    between atoms: _103  and  _105
REMARK   38  A    between atoms: _105  and  _106
REMARK   39  A    between atoms: _105  and  _108
REMARK   40  A    between atoms: _108  and  _109
REMARK   41  A    between atoms: _115  and  _117
REMARK   42  A    between atoms: _117  and  _118
REMARK   43  A    between atoms: _117  and  _120
REMARK   44  A    between atoms: _120  and  _121
REMARK   45  A    between atoms: _121  and  _123
REMARK   46  A    between atoms: _123  and  ZN_380
REMARK   47  A    between atoms: _124  and  _126
REMARK   48  A    between atoms: _126  and  _127
REMARK   49  A    between atoms: _126  and  _129
REMARK   50  A    between atoms: _129  and  _130
REMARK   51  A    between atoms: _136  and  _138
REMARK   52  A    between atoms: _138  and  _139
REMARK   53  A    between atoms: _138  and  _141
REMARK   54  A    between atoms: _141  and  _142
REMARK   55  A    between atoms: _147  and  _149
REMARK   56  A    between atoms: _149  and  _150
REMARK   57  A    between atoms: _149  and  _152
REMARK   58  A    between atoms: _152  and  _153
REMARK   59  A    between atoms: _153  and  _154
REMARK   60  A    between atoms: _157  and  _159
REMARK   61  A    between atoms: _159  and  _160
REMARK   62  A    between atoms: _159  and  _162
REMARK   63  A    between atoms: _162  and  _163
REMARK   64  A    between atoms: _163  and  _164
REMARK   65  A    between atoms: _167  and  _169
REMARK   66  A    between atoms: _169  and  _170
REMARK   67  A    between atoms: _169  and  _172
REMARK   68  A    between atoms: _172  and  _173
REMARK   69  A    between atoms: _176  and  _178
REMARK   70  A    between atoms: _178  and  _179
REMARK   71  A    between atoms: _178  and  _181
REMARK   72  A    between atoms: _181  and  _182
REMARK   73  A    between atoms: _183  and  ZN_380
REMARK   74  A    between atoms: _187  and  _189
REMARK   75  A    between atoms: _189  and  _190
REMARK   76  A    between atoms: _189  and  _192
REMARK   77  A    between atoms: _192  and  _193
REMARK   78  A    between atoms: _196  and  _198
REMARK   79  A    between atoms: _198  and  _199
REMARK   80  A    between atoms: _198  and  _201
REMARK   81  A    between atoms: _204  and  _206
REMARK   82  A    between atoms: _206  and  _207
REMARK   83  A    between atoms: _206  and  _209
REMARK   84  A    between atoms: _209  and  _210
REMARK   85  A    between atoms: _215  and  _217
REMARK   86  A    between atoms: _217  and  _218
REMARK   87  A    between atoms: _217  and  _220
REMARK   88  A    between atoms: _220  and  _221
REMARK   89  A    between atoms: _227  and  _229
REMARK   90  A    between atoms: _229  and  _230
REMARK   91  A    between atoms: _229  and  _232
REMARK   92  A    between atoms: _235  and  _237
REMARK   93  A    between atoms: _237  and  _238
REMARK   94  A    between atoms: _237  and  _240
REMARK   95  A    between atoms: _240  and  _241
REMARK   96  A    between atoms: _244  and  _246
REMARK   97  A    between atoms: _246  and  _247
REMARK   98  A    between atoms: _246  and  _249
REMARK   99  A    between atoms: _252  and  _254
REMARK  100  A    between atoms: _254  and  _255
REMARK  101  A    between atoms: _254  and  _257
REMARK  102  A    between atoms: _257  and  _258
REMARK  103  A    between atoms: _261  and  _263
REMARK  104  A    between atoms: _263  and  _264
REMARK  105  A    between atoms: _263  and  _266
REMARK  106  A    between atoms: _266  and  _267
REMARK  107  A    between atoms: _269  and  _271
REMARK  108  A    between atoms: _271  and  _272
REMARK  109  A    between atoms: _271  and  _274
REMARK  110  A    between atoms: _274  and  _275
REMARK  111  A    between atoms: _278  and  _280
REMARK  112  A    between atoms: _280  and  _281
REMARK  113  A    between atoms: _280  and  _283
REMARK  114  A    between atoms: _283  and  _284
REMARK  115  A    between atoms: _287  and  _289
REMARK  116  A    between atoms: _289  and  _290
REMARK  117  A    between atoms: _289  and  _292
REMARK  118  A    between atoms: _292  and  _293
REMARK  119  A    between atoms: _297  and  _298
REMARK  120  A    between atoms: _304  and  _305
REMARK  121  A    between atoms: _310  and  _312
REMARK  122  A    between atoms: _312  and  _313
REMARK  123  A    between atoms: _312  and  _315
REMARK  124  A    between atoms: _315  and  _316
REMARK  125  A    between atoms: _319  and  _321
REMARK  126  A    between atoms: _321  and  _322
REMARK  127  A    between atoms: _321  and  _324
REMARK  128  A    between atoms: _324  and  _325
REMARK  129  A    between atoms: _328  and  _330
REMARK  130  A    between atoms: _330  and  _331
REMARK  131  A    between atoms: _330  and  _333
REMARK  132  A    between atoms: _336  and  _338
REMARK  133  A    between atoms: _338  and  _339
REMARK  134  A    between atoms: _338  and  _341
REMARK  135  A    between atoms: _341  and  _342
REMARK  136  A    between atoms: _352  and  _354
REMARK  137  A    between atoms: _354  and  _355
REMARK  138  A    between atoms: _354  and  _357
REMARK  139  A    between atoms: _357  and  _358
REMARK  140  A    between atoms: _363  and  _365
REMARK  141  A    between atoms: _365  and  _366
REMARK  142  A    between atoms: _365  and  _368
REMARK  143  A    between atoms: _368  and  _369
REMARK  144  A    between atoms: _369  and  _370
REMARK  145  A    between atoms: _370  and  _371
REMARK                            x       y       z     vdW  Elec       q    Type
REMARK                         _______ _______ _______ _____ _____    ______ ____
ROOT
ATOM      1  CG  TRP A   1      12.001  -0.071  24.345  0.00  0.00    -0.002 A 
ATOM      2  CD1 TRP A   1      13.303   0.504  24.557  0.00  0.00    +0.068 A 
ATOM      3  NE1 TRP A   1      14.013   0.504  23.361  0.00  0.00    -0.352 N 
ATOM      4  HE1 TRP A   1      14.948   0.933  23.205  0.00  0.00    +0.166 HD
ATOM      5  CE2 TRP A   1      13.259  -0.165  22.418  0.00  0.00    +0.056 A 
ATOM      6  CZ2 TRP A   1      13.540  -0.429  21.079  0.00  0.00    +0.017 A 
ATOM      7  CH2 TRP A   1      12.569  -1.131  20.346  0.00  0.00    +0.001 A 
ATOM      8  CZ3 TRP A   1      11.314  -1.454  20.889  0.00  0.00    +0.000 A 
ATOM      9  CE3 TRP A   1      11.013  -1.134  22.207  0.00  0.00    +0.001 A 
ATOM     10  CD2 TRP A   1      11.992  -0.478  22.997  0.00  0.00    +0.013 A 
ENDROOT
BRANCH   1  11
ATOM     11  CB  TRP A   1      10.838  -0.227  25.333  0.00  0.00    +0.053 C 
BRANCH  11  12
ATOM     12  CA  TRP A   1       9.856   0.973  25.074  0.00  0.00    +0.137 C 
BRANCH  12  13
ATOM     13  N   TRP A   1      10.327   2.191  25.815  0.00  0.00    -0.239 NA
ATOM     14  H   TRP A   1      10.891   2.095  26.684  0.00  0.00    +0.142 HD
ENDBRANCH  12  13
BRANCH  12  15
ATOM     15  C   TRP A   1       8.509   0.597  25.589  0.00  0.00    +0.224 C 
ATOM     16  O   TRP A   1       8.242   0.566  26.765  0.00  0.00    -0.287 OA
ENDBRANCH  12  15
ENDBRANCH  11  12
ENDBRANCH   1  11
TORSDOF 4
REMARK  Name = ../refined-set-2016/4jss/4jss_pocket.pdb
REMARK  145 active torsions:
REMARK  status: ('A' for Active; 'I' for Inactive)
REMARK    1  A    between atoms: _1  and  _3
REMARK    2  A    between atoms: _3  and  _4
REMARK    3  A    between atoms: _3  and  _6
REMARK    4  A    between atoms: _6  and  _7
REMARK    5  A    between atoms: _17  and  _19
REMARK    6  A    between atoms: _19  and  _20
REMARK    7  A    between atoms: _19  and  _22
REMARK    8  A    between atoms: _22  and  _23
REMARK    9  A    between atoms: _28  and  _29
REMARK   10  A    between atoms: _31  and  _33
REMARK   11  A    between atoms: _33  and  _34
REMARK   12  A    between atoms: _33  and  _36
REMARK   13  A    between atoms: _36  and  _37
REMARK   14  A    between atoms: _42  and  _44
REMARK   15  A    between atoms: _44  and  _45
REMARK   16  A    between atoms: _44  and  _47
REMARK   17  A    between atoms: _47  and  _48
REMARK   18  A    between atoms: _53  and  _55
REMARK   19  A    between atoms: _55  and  _56
REMARK   20  A    between atoms: _59  and  _61
REMARK   21  A    between atoms: _61  and  _62
REMARK   22  A    between atoms: _61  and  _64
REMARK   23  A    between atoms: _64  and  _65
REMARK   24  A    between atoms: _71  and  _73
REMARK   25  A    between atoms: _73  and  _74
REMARK   26  A    between atoms: _73  and  _76
REMARK   27  A    between atoms: _76  and  _77
REMARK   28  A    between atoms: _82  and  _84
REMARK   29  A    between atoms: _84  and  _85
REMARK   30  A    between atoms: _84  and  _87
REMARK   31  A    between atoms: _87  and  _88
REMARK   32  A    between atoms: _91  and  _93
REMARK   33  A    between atoms: _93  and  _94
REMARK   34  A    between atoms: _93  and  _96
REMARK   35  A    between atoms: _96  and  _97
REMARK   36  A    between atoms: _97  and  _98
REMARK   37  A    between atoms: _103  and  _105
REMARK   38  A    between atoms: _105  and  _106
REMARK   39  A    between atoms: _105  and  _108
REMARK   40  A    between atoms: _108  and  _109
REMARK   41  A    between atoms: _115  and  _117
REMARK   42  A    between atoms: _117  and  _118
REMARK   43  A    between atoms: _117  and  _120
REMARK   44  A    between atoms: _120  and  _121
REMARK   45  A    between atoms: _121  and  _123
REMARK   46  A    between atoms: _123  and  ZN_380
REMARK   47  A    between atoms: _124  and  _126
REMARK   48  A    between atoms: _126  and  _127
REMARK   49  A    between atoms: _126  and  _129
REMARK   50  A    between atoms: _129  and  _130
REMARK   51  A    between atoms: _136  and  _138
REMARK   52  A    between atoms: _138  and  _139
REMARK   53  A    between atoms: _138  and  _141
REMARK   54  A    between atoms: _141  and  _142
REMARK   55  A    between atoms: _147  and  _149
REMARK   56  A    between atoms: _149  and  _150
REMARK   57  A    between atoms: _149  and  _152
REMARK   58  A    between atoms: _152  and  _153
REMARK   59  A    between atoms: _153  and  _154
REMARK   60  A    between atoms: _157  and  _159
REMARK   61  A    between atoms: _159  and  _160
REMARK   62  A    between atoms: _159  and  _162
REMARK   63  A    between atoms: _162  and  _163
REMARK   64  A    between atoms: _163  and  _164
REMARK   65  A    between atoms: _167  and  _169
REMARK   66  A    between atoms: _169  and  _170
REMARK   67  A    between atoms: _169  and  _172
REMARK   68  A    between atoms: _172  and  _173
REMARK   69  A    between atoms: _176  and  _178
REMARK   70  A    between atoms: _178  and  _179
REMARK   71  A    between atoms: _178  and  _181
REMARK   72  A    between atoms: _181  and  _182
REMARK   73  A    between atoms: _183  and  ZN_380
REMARK   74  A    between atoms: _187  and  _189
REMARK   75  A    between atoms: _189  and  _190
REMARK   76  A    between atoms: _189  and  _192
REMARK   77  A    between atoms: _192  and  _193
REMARK   78  A    between atoms: _196  and  _198
REMARK   79  A    between atoms: _198  and  _199
REMARK   80  A    between atoms: _198  and  _201
REMARK   81  A    between atoms: _204  and  _206
REMARK   82  A    between atoms: _206  and  _207
REMARK   83  A    between atoms: _206  and  _209
REMARK   84  A    between atoms: _209  and  _210
REMARK   85  A    between atoms: _215  and  _217
REMARK   86  A    between atoms: _217  and  _218
REMARK   87  A    between atoms: _217  and  _220
REMARK   88  A    between atoms: _220  and  _221
REMARK   89  A    between atoms: _227  and  _229
REMARK   90  A    between atoms: _229  and  _230
REMARK   91  A    between atoms: _229  and  _232
REMARK   92  A    between atoms: _235  and  _237
REMARK   93  A    between atoms: _237  and  _238
REMARK   94  A    between atoms: _237  and  _240
REMARK   95  A    between atoms: _240  and  _241
REMARK   96  A    between atoms: _244  and  _246
REMARK   97  A    between atoms: _246  and  _247
REMARK   98  A    between atoms: _246  and  _249
REMARK   99  A    between atoms: _252  and  _254
REMARK  100  A    between atoms: _254  and  _255
REMARK  101  A    between atoms: _254  and  _257
REMARK  102  A    between atoms: _257  and  _258
REMARK  103  A    between atoms: _261  and  _263
REMARK  104  A    between atoms: _263  and  _264
REMARK  105  A    between atoms: _263  and  _266
REMARK  106  A    between atoms: _266  and  _267
REMARK  107  A    between atoms: _269  and  _271
REMARK  108  A    between atoms: _271  and  _272
REMARK  109  A    between atoms: _271  and  _274
REMARK  110  A    between atoms: _274  and  _275
REMARK  111  A    between atoms: _278  and  _280
REMARK  112  A    between atoms: _280  and  _281
REMARK  113  A    between atoms: _280  and  _283
REMARK  114  A    between atoms: _283  and  _284
REMARK  115  A    between atoms: _287  and  _289
REMARK  116  A    between atoms: _289  and  _290
REMARK  117  A    between atoms: _289  and  _292
REMARK  118  A    between atoms: _292  and  _293
REMARK  119  A    between atoms: _297  and  _298
REMARK  120  A    between atoms: _304  and  _305
REMARK  121  A    between atoms: _310  and  _312
REMARK  122  A    between atoms: _312  and  _313
REMARK  123  A    between atoms: _312  and  _315
REMARK  124  A    between atoms: _315  and  _316
REMARK  125  A    between atoms: _319  and  _321
REMARK  126  A    between atoms: _321  and  _322
REMARK  127  A    between atoms: _321  and  _324
REMARK  128  A    between atoms: _324  and  _325
REMARK  129  A    between atoms: _328  and  _330
REMARK  130  A    between atoms: _330  and  _331
REMARK  131  A    between atoms: _330  and  _333
REMARK  132  A    between atoms: _336  and  _338
REMARK  133  A    between atoms: _338  and  _339
REMARK  134  A    between atoms: _338  and  _341
REMARK  135  A    between atoms: _341  and  _342
REMARK  136  A    between atoms: _352  and  _354
REMARK  137  A    between atoms: _354  and  _355
REMARK  138  A    between atoms: _354  and  _357
REMARK  139  A    between atoms: _357  and  _358
REMARK  140  A    between atoms: _363  and  _365
REMARK  141  A    between atoms: _365  and  _366
REMARK  142  A    between atoms: _365  and  _368
REMARK  143  A    between atoms: _368  and  _369
REMARK  144  A    between atoms: _369  and  _370
REMARK  145  A    between atoms: _370  and  _371
REMARK                            x       y       z     vdW  Elec       q    Type
REMARK                         _______ _______ _______ _____ _____    ______ ____
ROOT
ATOM      1  CB  ASN A   1      18.977  -7.815  10.471  0.00  0.00    +0.110 C 
ENDROOT
BRANCH   1   2
ATOM      2  CG  ASN A   1      17.500  -7.942  10.159  0.00  0.00    +0.221 C 
ATOM      3  OD1 ASN A   1      16.733  -8.723  10.729  0.00  0.00    -0.275 OA
ATOM      4  ND2 ASN A   1      17.063  -7.079   9.183  0.00  0.00    -0.329 N 
ATOM      5 HD21 ASN A   1      16.061  -7.072   8.906  0.00  0.00    +0.145 HD
ATOM      6 HD22 ASN A   1      17.735  -6.433   8.721  0.00  0.00    +0.145 HD
ENDBRANCH   1   2
BRANCH   1   7
ATOM      7  CA  ASN A   1      19.431  -8.622  11.675  0.00  0.00    +0.142 C 
BRANCH   7   8
ATOM      8  N   ASN A   1      19.015 -10.025  11.437  0.00  0.00    -0.239 NA
ATOM      9  H   ASN A   1      18.085 -10.257  11.034  0.00  0.00    +0.142 HD
ENDBRANCH   7   8
BRANCH   7  10
ATOM     10  C   ASN A   1      18.827  -8.107  12.976  0.00  0.00    +0.225 C 
ATOM     11  O   ASN A   1      18.066  -7.119  13.092  0.00  0.00    -0.287 OA
ENDBRANCH   7  10
ENDBRANCH   1   7
TORSDOF 4
REMARK  Name = ../refined-set-2016/4jss/4jss_pocket.pdb
REMARK  145 active torsions:
REMARK  status: ('A' for Active; 'I' for Inactive)
REMARK    1  A    between atoms: _1  and  _3
REMARK    2  A    between atoms: _3  and  _4
REMARK    3  A    between atoms: _3  and  _6
REMARK    4  A    between atoms: _6  and  _7
REMARK    5  A    between atoms: _17  and  _19
REMARK    6  A    between atoms: _19  and  _20
REMARK    7  A    between atoms: _19  and  _22
REMARK    8  A    between atoms: _22  and  _23
REMARK    9  A    between atoms: _28  and  _29
REMARK   10  A    between atoms: _31  and  _33
REMARK   11  A    between atoms: _33  and  _34
REMARK   12  A    between atoms: _33  and  _36
REMARK   13  A    between atoms: _36  and  _37
REMARK   14  A    between atoms: _42  and  _44
REMARK   15  A    between atoms: _44  and  _45
REMARK   16  A    between atoms: _44  and  _47
REMARK   17  A    between atoms: _47  and  _48
REMARK   18  A    between atoms: _53  and  _55
REMARK   19  A    between atoms: _55  and  _56
REMARK   20  A    between atoms: _59  and  _61
REMARK   21  A    between atoms: _61  and  _62
REMARK   22  A    between atoms: _61  and  _64
REMARK   23  A    between atoms: _64  and  _65
REMARK   24  A    between atoms: _71  and  _73
REMARK   25  A    between atoms: _73  and  _74
REMARK   26  A    between atoms: _73  and  _76
REMARK   27  A    between atoms: _76  and  _77
REMARK   28  A    between atoms: _82  and  _84
REMARK   29  A    between atoms: _84  and  _85
REMARK   30  A    between atoms: _84  and  _87
REMARK   31  A    between atoms: _87  and  _88
REMARK   32  A    between atoms: _91  and  _93
REMARK   33  A    between atoms: _93  and  _94
REMARK   34  A    between atoms: _93  and  _96
REMARK   35  A    between atoms: _96  and  _97
REMARK   36  A    between atoms: _97  and  _98
REMARK   37  A    between atoms: _103  and  _105
REMARK   38  A    between atoms: _105  and  _106
REMARK   39  A    between atoms: _105  and  _108
REMARK   40  A    between atoms: _108  and  _109
REMARK   41  A    between atoms: _115  and  _117
REMARK   42  A    between atoms: _117  and  _118
REMARK   43  A    between atoms: _117  and  _120
REMARK   44  A    between atoms: _120  and  _121
REMARK   45  A    between atoms: _121  and  _123
REMARK   46  A    between atoms: _123  and  ZN_380
REMARK   47  A    between atoms: _124  and  _126
REMARK   48  A    between atoms: _126  and  _127
REMARK   49  A    between atoms: _126  and  _129
REMARK   50  A    between atoms: _129  and  _130
REMARK   51  A    between atoms: _136  and  _138
REMARK   52  A    between atoms: _138  and  _139
REMARK   53  A    between atoms: _138  and  _141
REMARK   54  A    between atoms: _141  and  _142
REMARK   55  A    between atoms: _147  and  _149
REMARK   56  A    between atoms: _149  and  _150
REMARK   57  A    between atoms: _149  and  _152
REMARK   58  A    between atoms: _152  and  _153
REMARK   59  A    between atoms: _153  and  _154
REMARK   60  A    between atoms: _157  and  _159
REMARK   61  A    between atoms: _159  and  _160
REMARK   62  A    between atoms: _159  and  _162
REMARK   63  A    between atoms: _162  and  _163
REMARK   64  A    between atoms: _163  and  _164
REMARK   65  A    between atoms: _167  and  _169
REMARK   66  A    between atoms: _169  and  _170
REMARK   67  A    between atoms: _169  and  _172
REMARK   68  A    between atoms: _172  and  _173
REMARK   69  A    between atoms: _176  and  _178
REMARK   70  A    between atoms: _178  and  _179
REMARK   71  A    between atoms: _178  and  _181
REMARK   72  A    between atoms: _181  and  _182
REMARK   73  A    between atoms: _183  and  ZN_380
REMARK   74  A    between atoms: _187  and  _189
REMARK   75  A    between atoms: _189  and  _190
REMARK   76  A    between atoms: _189  and  _192
REMARK   77  A    between atoms: _192  and  _193
REMARK   78  A    between atoms: _196  and  _198
REMARK   79  A    between atoms: _198  and  _199
REMARK   80  A    between atoms: _198  and  _201
REMARK   81  A    between atoms: _204  and  _206
REMARK   82  A    between atoms: _206  and  _207
REMARK   83  A    between atoms: _206  and  _209
REMARK   84  A    between atoms: _209  and  _210
REMARK   85  A    between atoms: _215  and  _217
REMARK   86  A    between atoms: _217  and  _218
REMARK   87  A    between atoms: _217  and  _220
REMARK   88  A    between atoms: _220  and  _221
REMARK   89  A    between atoms: _227  and  _229
REMARK   90  A    between atoms: _229  and  _230
REMARK   91  A    between atoms: _229  and  _232
REMARK   92  A    between atoms: _235  and  _237
REMARK   93  A    between atoms: _237  and  _238
REMARK   94  A    between atoms: _237  and  _240
REMARK   95  A    between atoms: _240  and  _241
REMARK   96  A    between atoms: _244  and  _246
REMARK   97  A    between atoms: _246  and  _247
REMARK   98  A    between atoms: _246  and  _249
REMARK   99  A    between atoms: _252  and  _254
REMARK  100  A    between atoms: _254  and  _255
REMARK  101  A    between atoms: _254  and  _257
REMARK  102  A    between atoms: _257  and  _258
REMARK  103  A    between atoms: _261  and  _263
REMARK  104  A    between atoms: _263  and  _264
REMARK  105  A    between atoms: _263  and  _266
REMARK  106  A    between atoms: _266  and  _267
REMARK  107  A    between atoms: _269  and  _271
REMARK  108  A    between atoms: _271  and  _272
REMARK  109  A    between atoms: _271  and  _274
REMARK  110  A    between atoms: _274  and  _275
REMARK  111  A    between atoms: _278  and  _280
REMARK  112  A    between atoms: _280  and  _281
REMARK  113  A    between atoms: _280  and  _283
REMARK  114  A    between atoms: _283  and  _284
REMARK  115  A    between atoms: _287  and  _289
REMARK  116  A    between atoms: _289  and  _290
REMARK  117  A    between atoms: _289  and  _292
REMARK  118  A    between atoms: _292  and  _293
REMARK  119  A    between atoms: _297  and  _298
REMARK  120  A    between atoms: _304  and  _305
REMARK  121  A    between atoms: _310  and  _312
REMARK  122  A    between atoms: _312  and  _313
REMARK  123  A    between atoms: _312  and  _315
REMARK  124  A    between atoms: _315  and  _316
REMARK  125  A    between atoms: _319  and  _321
REMARK  126  A    between atoms: _321  and  _322
REMARK  127  A    between atoms: _321  and  _324
REMARK  128  A    between atoms: _324  and  _325
REMARK  129  A    between atoms: _328  and  _330
REMARK  130  A    between atoms: _330  and  _331
REMARK  131  A    between atoms: _330  and  _333
REMARK  132  A    between atoms: _336  and  _338
REMARK  133  A    between atoms: _338  and  _339
REMARK  134  A    between atoms: _338  and  _341
REMARK  135  A    between atoms: _341  and  _342
REMARK  136  A    between atoms: _352  and  _354
REMARK  137  A    between atoms: _354  and  _355
REMARK  138  A    between atoms: _354  and  _357
REMARK  139  A    between atoms: _357  and  _358
REMARK  140  A    between atoms: _363  and  _365
REMARK  141  A    between atoms: _365  and  _366
REMARK  142  A    between atoms: _365  and  _368
REMARK  143  A    between atoms: _368  and  _369
REMARK  144  A    between atoms: _369  and  _370
REMARK  145  A    between atoms: _370  and  _371
REMARK                            x       y       z     vdW  Elec       q    Type
REMARK                         _______ _______ _______ _____ _____    ______ ____
ROOT
ATOM      1  NE  ARG A   1      23.014  -3.969  21.095  0.00  0.00    -0.265 N 
ATOM      2  CZ  ARG A   1      23.182  -2.958  21.948  0.00  0.00    +0.342 C 
ATOM      3  NH2 ARG A   1      24.406  -2.750  22.438  0.00  0.00    -0.292 N 
ATOM      4 HH21 ARG A   1      24.573  -1.970  23.106  0.00  0.00    +0.255 HD
ATOM      5 HH22 ARG A   1      25.192  -3.368  22.152  0.00  0.00    +0.255 HD
ATOM      6  NH1 ARG A   1      22.234  -2.162  22.341  0.00  0.00    -0.292 N 
ATOM      7 HH11 ARG A   1      22.444  -1.394  23.010  0.00  0.00    +0.255 HD
ATOM      8 HH12 ARG A   1      21.265  -2.293  21.987  0.00  0.00    +0.255 HD
ATOM      9  HE  ARG A   1      23.820  -4.584  20.865  0.00  0.00    +0.259 HD
ENDROOT
BRANCH   1  10
ATOM     10  CD  ARG A   1      21.700  -4.229  20.472  0.00  0.00    +0.174 C 
BRANCH  10  11
ATOM     11  CG  ARG A   1      21.853  -5.634  19.863  0.00  0.00    +0.045 C 
BRANCH  11  12
ATOM     12  CB  ARG A   1      20.734  -5.869  18.794  0.00  0.00    +0.029 C 
BRANCH  12  13
ATOM     13  CA  ARG A   1      20.684  -7.345  18.374  0.00  0.00    +0.133 C 
BRANCH  13  14
ATOM     14  N   ARG A   1      19.751  -7.431  17.288  0.00  0.00    -0.239 NA
ATOM     15  H   ARG A   1      18.980  -6.737  17.213  0.00  0.00    +0.142 HD
ENDBRANCH  13  14
BRANCH  13  16
ATOM     16  C   ARG A   1      20.204  -8.235  19.526  0.00  0.00    +0.224 C 
ATOM     17  O   ARG A   1      19.017  -8.240  19.821  0.00  0.00    -0.287 OA
ENDBRANCH  13  16
ENDBRANCH  12  13
ENDBRANCH  11  12
ENDBRANCH  10  11
ENDBRANCH   1  10
TORSDOF 6
REMARK  Name = ../refined-set-2016/4jss/4jss_pocket.pdb
REMARK  145 active torsions:
REMARK  status: ('A' for Active; 'I' for Inactive)
REMARK    1  A    between atoms: _1  and  _3
REMARK    2  A    between atoms: _3  and  _4
REMARK    3  A    between atoms: _3  and  _6
REMARK    4  A    between atoms: _6  and  _7
REMARK    5  A    between atoms: _17  and  _19
REMARK    6  A    between atoms: _19  and  _20
REMARK    7  A    between atoms: _19  and  _22
REMARK    8  A    between atoms: _22  and  _23
REMARK    9  A    between atoms: _28  and  _29
REMARK   10  A    between atoms: _31  and  _33
REMARK   11  A    between atoms: _33  and  _34
REMARK   12  A    between atoms: _33  and  _36
REMARK   13  A    between atoms: _36  and  _37
REMARK   14  A    between atoms: _42  and  _44
REMARK   15  A    between atoms: _44  and  _45
REMARK   16  A    between atoms: _44  and  _47
REMARK   17  A    between atoms: _47  and  _48
REMARK   18  A    between atoms: _53  and  _55
REMARK   19  A    between atoms: _55  and  _56
REMARK   20  A    between atoms: _59  and  _61
REMARK   21  A    between atoms: _61  and  _62
REMARK   22  A    between atoms: _61  and  _64
REMARK   23  A    between atoms: _64  and  _65
REMARK   24  A    between atoms: _71  and  _73
REMARK   25  A    between atoms: _73  and  _74
REMARK   26  A    between atoms: _73  and  _76
REMARK   27  A    between atoms: _76  and  _77
REMARK   28  A    between atoms: _82  and  _84
REMARK   29  A    between atoms: _84  and  _85
REMARK   30  A    between atoms: _84  and  _87
REMARK   31  A    between atoms: _87  and  _88
REMARK   32  A    between atoms: _91  and  _93
REMARK   33  A    between atoms: _93  and  _94
REMARK   34  A    between atoms: _93  and  _96
REMARK   35  A    between atoms: _96  and  _97
REMARK   36  A    between atoms: _97  and  _98
REMARK   37  A    between atoms: _103  and  _105
REMARK   38  A    between atoms: _105  and  _106
REMARK   39  A    between atoms: _105  and  _108
REMARK   40  A    between atoms: _108  and  _109
REMARK   41  A    between atoms: _115  and  _117
REMARK   42  A    between atoms: _117  and  _118
REMARK   43  A    between atoms: _117  and  _120
REMARK   44  A    between atoms: _120  and  _121
REMARK   45  A    between atoms: _121  and  _123
REMARK   46  A    between atoms: _123  and  ZN_380
REMARK   47  A    between atoms: _124  and  _126
REMARK   48  A    between atoms: _126  and  _127
REMARK   49  A    between atoms: _126  and  _129
REMARK   50  A    between atoms: _129  and  _130
REMARK   51  A    between atoms: _136  and  _138
REMARK   52  A    between atoms: _138  and  _139
REMARK   53  A    between atoms: _138  and  _141
REMARK   54  A    between atoms: _141  and  _142
REMARK   55  A    between atoms: _147  and  _149
REMARK   56  A    between atoms: _149  and  _150
REMARK   57  A    between atoms: _149  and  _152
REMARK   58  A    between atoms: _152  and  _153
REMARK   59  A    between atoms: _153  and  _154
REMARK   60  A    between atoms: _157  and  _159
REMARK   61  A    between atoms: _159  and  _160
REMARK   62  A    between atoms: _159  and  _162
REMARK   63  A    between atoms: _162  and  _163
REMARK   64  A    between atoms: _163  and  _164
REMARK   65  A    between atoms: _167  and  _169
REMARK   66  A    between atoms: _169  and  _170
REMARK   67  A    between atoms: _169  and  _172
REMARK   68  A    between atoms: _172  and  _173
REMARK   69  A    between atoms: _176  and  _178
REMARK   70  A    between atoms: _178  and  _179
REMARK   71  A    between atoms: _178  and  _181
REMARK   72  A    between atoms: _181  and  _182
REMARK   73  A    between atoms: _183  and  ZN_380
REMARK   74  A    between atoms: _187  and  _189
REMARK   75  A    between atoms: _189  and  _190
REMARK   76  A    between atoms: _189  and  _192
REMARK   77  A    between atoms: _192  and  _193
REMARK   78  A    between atoms: _196  and  _198
REMARK   79  A    between atoms: _198  and  _199
REMARK   80  A    between atoms: _198  and  _201
REMARK   81  A    between atoms: _204  and  _206
REMARK   82  A    between atoms: _206  and  _207
REMARK   83  A    between atoms: _206  and  _209
REMARK   84  A    between atoms: _209  and  _210
REMARK   85  A    between atoms: _215  and  _217
REMARK   86  A    between atoms: _217  and  _218
REMARK   87  A    between atoms: _217  and  _220
REMARK   88  A    between atoms: _220  and  _221
REMARK   89  A    between atoms: _227  and  _229
REMARK   90  A    between atoms: _229  and  _230
REMARK   91  A    between atoms: _229  and  _232
REMARK   92  A    between atoms: _235  and  _237
REMARK   93  A    between atoms: _237  and  _238
REMARK   94  A    between atoms: _237  and  _240
REMARK   95  A    between atoms: _240  and  _241
REMARK   96  A    between atoms: _244  and  _246
REMARK   97  A    between atoms: _246  and  _247
REMARK   98  A    between atoms: _246  and  _249
REMARK   99  A    between atoms: _252  and  _254
REMARK  100  A    between atoms: _254  and  _255
REMARK  101  A    between atoms: _254  and  _257
REMARK  102  A    between atoms: _257  and  _258
REMARK  103  A    between atoms: _261  and  _263
REMARK  104  A    between atoms: _263  and  _264
REMARK  105  A    between atoms: _263  and  _266
REMARK  106  A    between atoms: _266  and  _267
REMARK  107  A    between atoms: _269  and  _271
REMARK  108  A    between atoms: _271  and  _272
REMARK  109  A    between atoms: _271  and  _274
REMARK  110  A    between atoms: _274  and  _275
REMARK  111  A    between atoms: _278  and  _280
REMARK  112  A    between atoms: _280  and  _281
REMARK  113  A    between atoms: _280  and  _283
REMARK  114  A    between atoms: _283  and  _284
REMARK  115  A    between atoms: _287  and  _289
REMARK  116  A    between atoms: _289  and  _290
REMARK  117  A    between atoms: _289  and  _292
REMARK  118  A    between atoms: _292  and  _293
REMARK  119  A    between atoms: _297  and  _298
REMARK  120  A    between atoms: _304  and  _305
REMARK  121  A    between atoms: _310  and  _312
REMARK  122  A    between atoms: _312  and  _313
REMARK  123  A    between atoms: _312  and  _315
REMARK  124  A    between atoms: _315  and  _316
REMARK  125  A    between atoms: _319  and  _321
REMARK  126  A    between atoms: _321  and  _322
REMARK  127  A    between atoms: _321  and  _324
REMARK  128  A    between atoms: _324  and  _325
REMARK  129  A    between atoms: _328  and  _330
REMARK  130  A    between atoms: _330  and  _331
REMARK  131  A    between atoms: _330  and  _333
REMARK  132  A    between atoms: _336  and  _338
REMARK  133  A    between atoms: _338  and  _339
REMARK  134  A    between atoms: _338  and  _341
REMARK  135  A    between atoms: _341  and  _342
REMARK  136  A    between atoms: _352  and  _354
REMARK  137  A    between atoms: _354  and  _355
REMARK  138  A    between atoms: _354  and  _357
REMARK  139  A    between atoms: _357  and  _358
REMARK  140  A    between atoms: _363  and  _365
REMARK  141  A    between atoms: _365  and  _366
REMARK  142  A    between atoms: _365  and  _368
REMARK  143  A    between atoms: _368  and  _369
REMARK  144  A    between atoms: _369  and  _370
REMARK  145  A    between atoms: _370  and  _371
REMARK                            x       y       z     vdW  Elec       q    Type
REMARK                         _______ _______ _______ _____ _____    ______ ____
ROOT
ATOM      1  O   HOH     1      18.349  -2.864  11.341  0.00  0.00    +0.000 OA
ENDROOT
TORSDOF 0
REMARK  Name = ../refined-set-2016/4jss/4jss_pocket.pdb
REMARK  145 active torsions:
REMARK  status: ('A' for Active; 'I' for Inactive)
REMARK    1  A    between atoms: _1  and  _3
REMARK    2  A    between atoms: _3  and  _4
REMARK    3  A    between atoms: _3  and  _6
REMARK    4  A    between atoms: _6  and  _7
REMARK    5  A    between atoms: _17  and  _19
REMARK    6  A    between atoms: _19  and  _20
REMARK    7  A    between atoms: _19  and  _22
REMARK    8  A    between atoms: _22  and  _23
REMARK    9  A    between atoms: _28  and  _29
REMARK   10  A    between atoms: _31  and  _33
REMARK   11  A    between atoms: _33  and  _34
REMARK   12  A    between atoms: _33  and  _36
REMARK   13  A    between atoms: _36  and  _37
REMARK   14  A    between atoms: _42  and  _44
REMARK   15  A    between atoms: _44  and  _45
REMARK   16  A    between atoms: _44  and  _47
REMARK   17  A    between atoms: _47  and  _48
REMARK   18  A    between atoms: _53  and  _55
REMARK   19  A    between atoms: _55  and  _56
REMARK   20  A    between atoms: _59  and  _61
REMARK   21  A    between atoms: _61  and  _62
REMARK   22  A    between atoms: _61  and  _64
REMARK   23  A    between atoms: _64  and  _65
REMARK   24  A    between atoms: _71  and  _73
REMARK   25  A    between atoms: _73  and  _74
REMARK   26  A    between atoms: _73  and  _76
REMARK   27  A    between atoms: _76  and  _77
REMARK   28  A    between atoms: _82  and  _84
REMARK   29  A    between atoms: _84  and  _85
REMARK   30  A    between atoms: _84  and  _87
REMARK   31  A    between atoms: _87  and  _88
REMARK   32  A    between atoms: _91  and  _93
REMARK   33  A    between atoms: _93  and  _94
REMARK   34  A    between atoms: _93  and  _96
REMARK   35  A    between atoms: _96  and  _97
REMARK   36  A    between atoms: _97  and  _98
REMARK   37  A    between atoms: _103  and  _105
REMARK   38  A    between atoms: _105  and  _106
REMARK   39  A    between atoms: _105  and  _108
REMARK   40  A    between atoms: _108  and  _109
REMARK   41  A    between atoms: _115  and  _117
REMARK   42  A    between atoms: _117  and  _118
REMARK   43  A    between atoms: _117  and  _120
REMARK   44  A    between atoms: _120  and  _121
REMARK   45  A    between atoms: _121  and  _123
REMARK   46  A    between atoms: _123  and  ZN_380
REMARK   47  A    between atoms: _124  and  _126
REMARK   48  A    between atoms: _126  and  _127
REMARK   49  A    between atoms: _126  and  _129
REMARK   50  A    between atoms: _129  and  _130
REMARK   51  A    between atoms: _136  and  _138
REMARK   52  A    between atoms: _138  and  _139
REMARK   53  A    between atoms: _138  and  _141
REMARK   54  A    between atoms: _141  and  _142
REMARK   55  A    between atoms: _147  and  _149
REMARK   56  A    between atoms: _149  and  _150
REMARK   57  A    between atoms: _149  and  _152
REMARK   58  A    between atoms: _152  and  _153
REMARK   59  A    between atoms: _153  and  _154
REMARK   60  A    between atoms: _157  and  _159
REMARK   61  A    between atoms: _159  and  _160
REMARK   62  A    between atoms: _159  and  _162
REMARK   63  A    between atoms: _162  and  _163
REMARK   64  A    between atoms: _163  and  _164
REMARK   65  A    between atoms: _167  and  _169
REMARK   66  A    between atoms: _169  and  _170
REMARK   67  A    between atoms: _169  and  _172
REMARK   68  A    between atoms: _172  and  _173
REMARK   69  A    between atoms: _176  and  _178
REMARK   70  A    between atoms: _178  and  _179
REMARK   71  A    between atoms: _178  and  _181
REMARK   72  A    between atoms: _181  and  _182
REMARK   73  A    between atoms: _183  and  ZN_380
REMARK   74  A    between atoms: _187  and  _189
REMARK   75  A    between atoms: _189  and  _190
REMARK   76  A    between atoms: _189  and  _192
REMARK   77  A    between atoms: _192  and  _193
REMARK   78  A    between atoms: _196  and  _198
REMARK   79  A    between atoms: _198  and  _199
REMARK   80  A    between atoms: _198  and  _201
REMARK   81  A    between atoms: _204  and  _206
REMARK   82  A    between atoms: _206  and  _207
REMARK   83  A    between atoms: _206  and  _209
REMARK   84  A    between atoms: _209  and  _210
REMARK   85  A    between atoms: _215  and  _217
REMARK   86  A    between atoms: _217  and  _218
REMARK   87  A    between atoms: _217  and  _220
REMARK   88  A    between atoms: _220  and  _221
REMARK   89  A    between atoms: _227  and  _229
REMARK   90  A    between atoms: _229  and  _230
REMARK   91  A    between atoms: _229  and  _232
REMARK   92  A    between atoms: _235  and  _237
REMARK   93  A    between atoms: _237  and  _238
REMARK   94  A    between atoms: _237  and  _240
REMARK   95  A    between atoms: _240  and  _241
REMARK   96  A    between atoms: _244  and  _246
REMARK   97  A    between atoms: _246  and  _247
REMARK   98  A    between atoms: _246  and  _249
REMARK   99  A    between atoms: _252  and  _254
REMARK  100  A    between atoms: _254  and  _255
REMARK  101  A    between atoms: _254  and  _257
REMARK  102  A    between atoms: _257  and  _258
REMARK  103  A    between atoms: _261  and  _263
REMARK  104  A    between atoms: _263  and  _264
REMARK  105  A    between atoms: _263  and  _266
REMARK  106  A    between atoms: _266  and  _267
REMARK  107  A    between atoms: _269  and  _271
REMARK  108  A    between atoms: _271  and  _272
REMARK  109  A    between atoms: _271  and  _274
REMARK  110  A    between atoms: _274  and  _275
REMARK  111  A    between atoms: _278  and  _280
REMARK  112  A    between atoms: _280  and  _281
REMARK  113  A    between atoms: _280  and  _283
REMARK  114  A    between atoms: _283  and  _284
REMARK  115  A    between atoms: _287  and  _289
REMARK  116  A    between atoms: _289  and  _290
REMARK  117  A    between atoms: _289  and  _292
REMARK  118  A    between atoms: _292  and  _293
REMARK  119  A    between atoms: _297  and  _298
REMARK  120  A    between atoms: _304  and  _305
REMARK  121  A    between atoms: _310  and  _312
REMARK  122  A    between atoms: _312  and  _313
REMARK  123  A    between atoms: _312  and  _315
REMARK  124  A    between atoms: _315  and  _316
REMARK  125  A    between atoms: _319  and  _321
REMARK  126  A    between atoms: _321  and  _322
REMARK  127  A    between atoms: _321  and  _324
REMARK  128  A    between atoms: _324  and  _325
REMARK  129  A    between atoms: _328  and  _330
REMARK  130  A    between atoms: _330  and  _331
REMARK  131  A    between atoms: _330  and  _333
REMARK  132  A    between atoms: _336  and  _338
REMARK  133  A    between atoms: _338  and  _339
REMARK  134  A    between atoms: _338  and  _341
REMARK  135  A    between atoms: _341  and  _342
REMARK  136  A    between atoms: _352  and  _354
REMARK  137  A    between atoms: _354  and  _355
REMARK  138  A    between atoms: _354  and  _357
REMARK  139  A    between atoms: _357  and  _358
REMARK  140  A    between atoms: _363  and  _365
REMARK  141  A    between atoms: _365  and  _366
REMARK  142  A    between atoms: _365  and  _368
REMARK  143  A    between atoms: _368  and  _369
REMARK  144  A    between atoms: _369  and  _370
REMARK  145  A    between atoms: _370  and  _371
REMARK                            x       y       z     vdW  Elec       q    Type
REMARK                         _______ _______ _______ _____ _____    ______ ____
ROOT
ATOM      1  O   HOH     1      19.493  -4.263  15.803  0.00  0.00    +0.000 OA
ENDROOT
TORSDOF 0
REMARK  Name = ../refined-set-2016/4jss/4jss_pocket.pdb
REMARK  145 active torsions:
REMARK  status: ('A' for Active; 'I' for Inactive)
REMARK    1  A    between atoms: _1  and  _3
REMARK    2  A    between atoms: _3  and  _4
REMARK    3  A    between atoms: _3  and  _6
REMARK    4  A    between atoms: _6  and  _7
REMARK    5  A    between atoms: _17  and  _19
REMARK    6  A    between atoms: _19  and  _20
REMARK    7  A    between atoms: _19  and  _22
REMARK    8  A    between atoms: _22  and  _23
REMARK    9  A    between atoms: _28  and  _29
REMARK   10  A    between atoms: _31  and  _33
REMARK   11  A    between atoms: _33  and  _34
REMARK   12  A    between atoms: _33  and  _36
REMARK   13  A    between atoms: _36  and  _37
REMARK   14  A    between atoms: _42  and  _44
REMARK   15  A    between atoms: _44  and  _45
REMARK   16  A    between atoms: _44  and  _47
REMARK   17  A    between atoms: _47  and  _48
REMARK   18  A    between atoms: _53  and  _55
REMARK   19  A    between atoms: _55  and  _56
REMARK   20  A    between atoms: _59  and  _61
REMARK   21  A    between atoms: _61  and  _62
REMARK   22  A    between atoms: _61  and  _64
REMARK   23  A    between atoms: _64  and  _65
REMARK   24  A    between atoms: _71  and  _73
REMARK   25  A    between atoms: _73  and  _74
REMARK   26  A    between atoms: _73  and  _76
REMARK   27  A    between atoms: _76  and  _77
REMARK   28  A    between atoms: _82  and  _84
REMARK   29  A    between atoms: _84  and  _85
REMARK   30  A    between atoms: _84  and  _87
REMARK   31  A    between atoms: _87  and  _88
REMARK   32  A    between atoms: _91  and  _93
REMARK   33  A    between atoms: _93  and  _94
REMARK   34  A    between atoms: _93  and  _96
REMARK   35  A    between atoms: _96  and  _97
REMARK   36  A    between atoms: _97  and  _98
REMARK   37  A    between atoms: _103  and  _105
REMARK   38  A    between atoms: _105  and  _106
REMARK   39  A    between atoms: _105  and  _108
REMARK   40  A    between atoms: _108  and  _109
REMARK   41  A    between atoms: _115  and  _117
REMARK   42  A    between atoms: _117  and  _118
REMARK   43  A    between atoms: _117  and  _120
REMARK   44  A    between atoms: _120  and  _121
REMARK   45  A    between atoms: _121  and  _123
REMARK   46  A    between atoms: _123  and  ZN_380
REMARK   47  A    between atoms: _124  and  _126
REMARK   48  A    between atoms: _126  and  _127
REMARK   49  A    between atoms: _126  and  _129
REMARK   50  A    between atoms: _129  and  _130
REMARK   51  A    between atoms: _136  and  _138
REMARK   52  A    between atoms: _138  and  _139
REMARK   53  A    between atoms: _138  and  _141
REMARK   54  A    between atoms: _141  and  _142
REMARK   55  A    between atoms: _147  and  _149
REMARK   56  A    between atoms: _149  and  _150
REMARK   57  A    between atoms: _149  and  _152
REMARK   58  A    between atoms: _152  and  _153
REMARK   59  A    between atoms: _153  and  _154
REMARK   60  A    between atoms: _157  and  _159
REMARK   61  A    between atoms: _159  and  _160
REMARK   62  A    between atoms: _159  and  _162
REMARK   63  A    between atoms: _162  and  _163
REMARK   64  A    between atoms: _163  and  _164
REMARK   65  A    between atoms: _167  and  _169
REMARK   66  A    between atoms: _169  and  _170
REMARK   67  A    between atoms: _169  and  _172
REMARK   68  A    between atoms: _172  and  _173
REMARK   69  A    between atoms: _176  and  _178
REMARK   70  A    between atoms: _178  and  _179
REMARK   71  A    between atoms: _178  and  _181
REMARK   72  A    between atoms: _181  and  _182
REMARK   73  A    between atoms: _183  and  ZN_380
REMARK   74  A    between atoms: _187  and  _189
REMARK   75  A    between atoms: _189  and  _190
REMARK   76  A    between atoms: _189  and  _192
REMARK   77  A    between atoms: _192  and  _193
REMARK   78  A    between atoms: _196  and  _198
REMARK   79  A    between atoms: _198  and  _199
REMARK   80  A    between atoms: _198  and  _201
REMARK   81  A    between atoms: _204  and  _206
REMARK   82  A    between atoms: _206  and  _207
REMARK   83  A    between atoms: _206  and  _209
REMARK   84  A    between atoms: _209  and  _210
REMARK   85  A    between atoms: _215  and  _217
REMARK   86  A    between atoms: _217  and  _218
REMARK   87  A    between atoms: _217  and  _220
REMARK   88  A    between atoms: _220  and  _221
REMARK   89  A    between atoms: _227  and  _229
REMARK   90  A    between atoms: _229  and  _230
REMARK   91  A    between atoms: _229  and  _232
REMARK   92  A    between atoms: _235  and  _237
REMARK   93  A    between atoms: _237  and  _238
REMARK   94  A    between atoms: _237  and  _240
REMARK   95  A    between atoms: _240  and  _241
REMARK   96  A    between atoms: _244  and  _246
REMARK   97  A    between atoms: _246  and  _247
REMARK   98  A    between atoms: _246  and  _249
REMARK   99  A    between atoms: _252  and  _254
REMARK  100  A    between atoms: _254  and  _255
REMARK  101  A    between atoms: _254  and  _257
REMARK  102  A    between atoms: _257  and  _258
REMARK  103  A    between atoms: _261  and  _263
REMARK  104  A    between atoms: _263  and  _264
REMARK  105  A    between atoms: _263  and  _266
REMARK  106  A    between atoms: _266  and  _267
REMARK  107  A    between atoms: _269  and  _271
REMARK  108  A    between atoms: _271  and  _272
REMARK  109  A    between atoms: _271  and  _274
REMARK  110  A    between atoms: _274  and  _275
REMARK  111  A    between atoms: _278  and  _280
REMARK  112  A    between atoms: _280  and  _281
REMARK  113  A    between atoms: _280  and  _283
REMARK  114  A    between atoms: _283  and  _284
REMARK  115  A    between atoms: _287  and  _289
REMARK  116  A    between atoms: _289  and  _290
REMARK  117  A    between atoms: _289  and  _292
REMARK  118  A    between atoms: _292  and  _293
REMARK  119  A    between atoms: _297  and  _298
REMARK  120  A    between atoms: _304  and  _305
REMARK  121  A    between atoms: _310  and  _312
REMARK  122  A    between atoms: _312  and  _313
REMARK  123  A    between atoms: _312  and  _315
REMARK  124  A    between atoms: _315  and  _316
REMARK  125  A    between atoms: _319  and  _321
REMARK  126  A    between atoms: _321  and  _322
REMARK  127  A    between atoms: _321  and  _324
REMARK  128  A    between atoms: _324  and  _325
REMARK  129  A    between atoms: _328  and  _330
REMARK  130  A    between atoms: _330  and  _331
REMARK  131  A    between atoms: _330  and  _333
REMARK  132  A    between atoms: _336  and  _338
REMARK  133  A    between atoms: _338  and  _339
REMARK  134  A    between atoms: _338  and  _341
REMARK  135  A    between atoms: _341  and  _342
REMARK  136  A    between atoms: _352  and  _354
REMARK  137  A    between atoms: _354  and  _355
REMARK  138  A    between atoms: _354  and  _357
REMARK  139  A    between atoms: _357  and  _358
REMARK  140  A    between atoms: _363  and  _365
REMARK  141  A    between atoms: _365  and  _366
REMARK  142  A    between atoms: _365  and  _368
REMARK  143  A    between atoms: _368  and  _369
REMARK  144  A    between atoms: _369  and  _370
REMARK  145  A    between atoms: _370  and  _371
REMARK                            x       y       z     vdW  Elec       q    Type
REMARK                         _______ _______ _______ _____ _____    ______ ____
ROOT
ATOM      1  O   HOH     1      12.374  -3.985   8.032  0.00  0.00    +0.000 OA
ENDROOT
TORSDOF 0
REMARK  Name = ../refined-set-2016/4jss/4jss_pocket.pdb
REMARK  145 active torsions:
REMARK  status: ('A' for Active; 'I' for Inactive)
REMARK    1  A    between atoms: _1  and  _3
REMARK    2  A    between atoms: _3  and  _4
REMARK    3  A    between atoms: _3  and  _6
REMARK    4  A    between atoms: _6  and  _7
REMARK    5  A    between atoms: _17  and  _19
REMARK    6  A    between atoms: _19  and  _20
REMARK    7  A    between atoms: _19  and  _22
REMARK    8  A    between atoms: _22  and  _23
REMARK    9  A    between atoms: _28  and  _29
REMARK   10  A    between atoms: _31  and  _33
REMARK   11  A    between atoms: _33  and  _34
REMARK   12  A    between atoms: _33  and  _36
REMARK   13  A    between atoms: _36  and  _37
REMARK   14  A    between atoms: _42  and  _44
REMARK   15  A    between atoms: _44  and  _45
REMARK   16  A    between atoms: _44  and  _47
REMARK   17  A    between atoms: _47  and  _48
REMARK   18  A    between atoms: _53  and  _55
REMARK   19  A    between atoms: _55  and  _56
REMARK   20  A    between atoms: _59  and  _61
REMARK   21  A    between atoms: _61  and  _62
REMARK   22  A    between atoms: _61  and  _64
REMARK   23  A    between atoms: _64  and  _65
REMARK   24  A    between atoms: _71  and  _73
REMARK   25  A    between atoms: _73  and  _74
REMARK   26  A    between atoms: _73  and  _76
REMARK   27  A    between atoms: _76  and  _77
REMARK   28  A    between atoms: _82  and  _84
REMARK   29  A    between atoms: _84  and  _85
REMARK   30  A    between atoms: _84  and  _87
REMARK   31  A    between atoms: _87  and  _88
REMARK   32  A    between atoms: _91  and  _93
REMARK   33  A    between atoms: _93  and  _94
REMARK   34  A    between atoms: _93  and  _96
REMARK   35  A    between atoms: _96  and  _97
REMARK   36  A    between atoms: _97  and  _98
REMARK   37  A    between atoms: _103  and  _105
REMARK   38  A    between atoms: _105  and  _106
REMARK   39  A    between atoms: _105  and  _108
REMARK   40  A    between atoms: _108  and  _109
REMARK   41  A    between atoms: _115  and  _117
REMARK   42  A    between atoms: _117  and  _118
REMARK   43  A    between atoms: _117  and  _120
REMARK   44  A    between atoms: _120  and  _121
REMARK   45  A    between atoms: _121  and  _123
REMARK   46  A    between atoms: _123  and  ZN_380
REMARK   47  A    between atoms: _124  and  _126
REMARK   48  A    between atoms: _126  and  _127
REMARK   49  A    between atoms: _126  and  _129
REMARK   50  A    between atoms: _129  and  _130
REMARK   51  A    between atoms: _136  and  _138
REMARK   52  A    between atoms: _138  and  _139
REMARK   53  A    between atoms: _138  and  _141
REMARK   54  A    between atoms: _141  and  _142
REMARK   55  A    between atoms: _147  and  _149
REMARK   56  A    between atoms: _149  and  _150
REMARK   57  A    between atoms: _149  and  _152
REMARK   58  A    between atoms: _152  and  _153
REMARK   59  A    between atoms: _153  and  _154
REMARK   60  A    between atoms: _157  and  _159
REMARK   61  A    between atoms: _159  and  _160
REMARK   62  A    between atoms: _159  and  _162
REMARK   63  A    between atoms: _162  and  _163
REMARK   64  A    between atoms: _163  and  _164
REMARK   65  A    between atoms: _167  and  _169
REMARK   66  A    between atoms: _169  and  _170
REMARK   67  A    between atoms: _169  and  _172
REMARK   68  A    between atoms: _172  and  _173
REMARK   69  A    between atoms: _176  and  _178
REMARK   70  A    between atoms: _178  and  _179
REMARK   71  A    between atoms: _178  and  _181
REMARK   72  A    between atoms: _181  and  _182
REMARK   73  A    between atoms: _183  and  ZN_380
REMARK   74  A    between atoms: _187  and  _189
REMARK   75  A    between atoms: _189  and  _190
REMARK   76  A    between atoms: _189  and  _192
REMARK   77  A    between atoms: _192  and  _193
REMARK   78  A    between atoms: _196  and  _198
REMARK   79  A    between atoms: _198  and  _199
REMARK   80  A    between atoms: _198  and  _201
REMARK   81  A    between atoms: _204  and  _206
REMARK   82  A    between atoms: _206  and  _207
REMARK   83  A    between atoms: _206  and  _209
REMARK   84  A    between atoms: _209  and  _210
REMARK   85  A    between atoms: _215  and  _217
REMARK   86  A    between atoms: _217  and  _218
REMARK   87  A    between atoms: _217  and  _220
REMARK   88  A    between atoms: _220  and  _221
REMARK   89  A    between atoms: _227  and  _229
REMARK   90  A    between atoms: _229  and  _230
REMARK   91  A    between atoms: _229  and  _232
REMARK   92  A    between atoms: _235  and  _237
REMARK   93  A    between atoms: _237  and  _238
REMARK   94  A    between atoms: _237  and  _240
REMARK   95  A    between atoms: _240  and  _241
REMARK   96  A    between atoms: _244  and  _246
REMARK   97  A    between atoms: _246  and  _247
REMARK   98  A    between atoms: _246  and  _249
REMARK   99  A    between atoms: _252  and  _254
REMARK  100  A    between atoms: _254  and  _255
REMARK  101  A    between atoms: _254  and  _257
REMARK  102  A    between atoms: _257  and  _258
REMARK  103  A    between atoms: _261  and  _263
REMARK  104  A    between atoms: _263  and  _264
REMARK  105  A    between atoms: _263  and  _266
REMARK  106  A    between atoms: _266  and  _267
REMARK  107  A    between atoms: _269  and  _271
REMARK  108  A    between atoms: _271  and  _272
REMARK  109  A    between atoms: _271  and  _274
REMARK  110  A    between atoms: _274  and  _275
REMARK  111  A    between atoms: _278  and  _280
REMARK  112  A    between atoms: _280  and  _281
REMARK  113  A    between atoms: _280  and  _283
REMARK  114  A    between atoms: _283  and  _284
REMARK  115  A    between atoms: _287  and  _289
REMARK  116  A    between atoms: _289  and  _290
REMARK  117  A    between atoms: _289  and  _292
REMARK  118  A    between atoms: _292  and  _293
REMARK  119  A    between atoms: _297  and  _298
REMARK  120  A    between atoms: _304  and  _305
REMARK  121  A    between atoms: _310  and  _312
REMARK  122  A    between atoms: _312  and  _313
REMARK  123  A    between atoms: _312  and  _315
REMARK  124  A    between atoms: _315  and  _316
REMARK  125  A    between atoms: _319  and  _321
REMARK  126  A    between atoms: _321  and  _322
REMARK  127  A    between atoms: _321  and  _324
REMARK  128  A    between atoms: _324  and  _325
REMARK  129  A    between atoms: _328  and  _330
REMARK  130  A    between atoms: _330  and  _331
REMARK  131  A    between atoms: _330  and  _333
REMARK  132  A    between atoms: _336  and  _338
REMARK  133  A    between atoms: _338  and  _339
REMARK  134  A    between atoms: _338  and  _341
REMARK  135  A    between atoms: _341  and  _342
REMARK  136  A    between atoms: _352  and  _354
REMARK  137  A    between atoms: _354  and  _355
REMARK  138  A    between atoms: _354  and  _357
REMARK  139  A    between atoms: _357  and  _358
REMARK  140  A    between atoms: _363  and  _365
REMARK  141  A    between atoms: _365  and  _366
REMARK  142  A    between atoms: _365  and  _368
REMARK  143  A    between atoms: _368  and  _369
REMARK  144  A    between atoms: _369  and  _370
REMARK  145  A    between atoms: _370  and  _371
REMARK                            x       y       z     vdW  Elec       q    Type
REMARK                         _______ _______ _______ _____ _____    ______ ____
ROOT
ATOM      1  O   HOH     1      15.241  -2.700  11.625  0.00  0.00    +0.000 OA
ENDROOT
TORSDOF 0
REMARK  Name = ../refined-set-2016/4jss/4jss_pocket.pdb
REMARK  145 active torsions:
REMARK  status: ('A' for Active; 'I' for Inactive)
REMARK    1  A    between atoms: _1  and  _3
REMARK    2  A    between atoms: _3  and  _4
REMARK    3  A    between atoms: _3  and  _6
REMARK    4  A    between atoms: _6  and  _7
REMARK    5  A    between atoms: _17  and  _19
REMARK    6  A    between atoms: _19  and  _20
REMARK    7  A    between atoms: _19  and  _22
REMARK    8  A    between atoms: _22  and  _23
REMARK    9  A    between atoms: _28  and  _29
REMARK   10  A    between atoms: _31  and  _33
REMARK   11  A    between atoms: _33  and  _34
REMARK   12  A    between atoms: _33  and  _36
REMARK   13  A    between atoms: _36  and  _37
REMARK   14  A    between atoms: _42  and  _44
REMARK   15  A    between atoms: _44  and  _45
REMARK   16  A    between atoms: _44  and  _47
REMARK   17  A    between atoms: _47  and  _48
REMARK   18  A    between atoms: _53  and  _55
REMARK   19  A    between atoms: _55  and  _56
REMARK   20  A    between atoms: _59  and  _61
REMARK   21  A    between atoms: _61  and  _62
REMARK   22  A    between atoms: _61  and  _64
REMARK   23  A    between atoms: _64  and  _65
REMARK   24  A    between atoms: _71  and  _73
REMARK   25  A    between atoms: _73  and  _74
REMARK   26  A    between atoms: _73  and  _76
REMARK   27  A    between atoms: _76  and  _77
REMARK   28  A    between atoms: _82  and  _84
REMARK   29  A    between atoms: _84  and  _85
REMARK   30  A    between atoms: _84  and  _87
REMARK   31  A    between atoms: _87  and  _88
REMARK   32  A    between atoms: _91  and  _93
REMARK   33  A    between atoms: _93  and  _94
REMARK   34  A    between atoms: _93  and  _96
REMARK   35  A    between atoms: _96  and  _97
REMARK   36  A    between atoms: _97  and  _98
REMARK   37  A    between atoms: _103  and  _105
REMARK   38  A    between atoms: _105  and  _106
REMARK   39  A    between atoms: _105  and  _108
REMARK   40  A    between atoms: _108  and  _109
REMARK   41  A    between atoms: _115  and  _117
REMARK   42  A    between atoms: _117  and  _118
REMARK   43  A    between atoms: _117  and  _120
REMARK   44  A    between atoms: _120  and  _121
REMARK   45  A    between atoms: _121  and  _123
REMARK   46  A    between atoms: _123  and  ZN_380
REMARK   47  A    between atoms: _124  and  _126
REMARK   48  A    between atoms: _126  and  _127
REMARK   49  A    between atoms: _126  and  _129
REMARK   50  A    between atoms: _129  and  _130
REMARK   51  A    between atoms: _136  and  _138
REMARK   52  A    between atoms: _138  and  _139
REMARK   53  A    between atoms: _138  and  _141
REMARK   54  A    between atoms: _141  and  _142
REMARK   55  A    between atoms: _147  and  _149
REMARK   56  A    between atoms: _149  and  _150
REMARK   57  A    between atoms: _149  and  _152
REMARK   58  A    between atoms: _152  and  _153
REMARK   59  A    between atoms: _153  and  _154
REMARK   60  A    between atoms: _157  and  _159
REMARK   61  A    between atoms: _159  and  _160
REMARK   62  A    between atoms: _159  and  _162
REMARK   63  A    between atoms: _162  and  _163
REMARK   64  A    between atoms: _163  and  _164
REMARK   65  A    between atoms: _167  and  _169
REMARK   66  A    between atoms: _169  and  _170
REMARK   67  A    between atoms: _169  and  _172
REMARK   68  A    between atoms: _172  and  _173
REMARK   69  A    between atoms: _176  and  _178
REMARK   70  A    between atoms: _178  and  _179
REMARK   71  A    between atoms: _178  and  _181
REMARK   72  A    between atoms: _181  and  _182
REMARK   73  A    between atoms: _183  and  ZN_380
REMARK   74  A    between atoms: _187  and  _189
REMARK   75  A    between atoms: _189  and  _190
REMARK   76  A    between atoms: _189  and  _192
REMARK   77  A    between atoms: _192  and  _193
REMARK   78  A    between atoms: _196  and  _198
REMARK   79  A    between atoms: _198  and  _199
REMARK   80  A    between atoms: _198  and  _201
REMARK   81  A    between atoms: _204  and  _206
REMARK   82  A    between atoms: _206  and  _207
REMARK   83  A    between atoms: _206  and  _209
REMARK   84  A    between atoms: _209  and  _210
REMARK   85  A    between atoms: _215  and  _217
REMARK   86  A    between atoms: _217  and  _218
REMARK   87  A    between atoms: _217  and  _220
REMARK   88  A    between atoms: _220  and  _221
REMARK   89  A    between atoms: _227  and  _229
REMARK   90  A    between atoms: _229  and  _230
REMARK   91  A    between atoms: _229  and  _232
REMARK   92  A    between atoms: _235  and  _237
REMARK   93  A    between atoms: _237  and  _238
REMARK   94  A    between atoms: _237  and  _240
REMARK   95  A    between atoms: _240  and  _241
REMARK   96  A    between atoms: _244  and  _246
REMARK   97  A    between atoms: _246  and  _247
REMARK   98  A    between atoms: _246  and  _249
REMARK   99  A    between atoms: _252  and  _254
REMARK  100  A    between atoms: _254  and  _255
REMARK  101  A    between atoms: _254  and  _257
REMARK  102  A    between atoms: _257  and  _258
REMARK  103  A    between atoms: _261  and  _263
REMARK  104  A    between atoms: _263  and  _264
REMARK  105  A    between atoms: _263  and  _266
REMARK  106  A    between atoms: _266  and  _267
REMARK  107  A    between atoms: _269  and  _271
REMARK  108  A    between atoms: _271  and  _272
REMARK  109  A    between atoms: _271  and  _274
REMARK  110  A    between atoms: _274  and  _275
REMARK  111  A    between atoms: _278  and  _280
REMARK  112  A    between atoms: _280  and  _281
REMARK  113  A    between atoms: _280  and  _283
REMARK  114  A    between atoms: _283  and  _284
REMARK  115  A    between atoms: _287  and  _289
REMARK  116  A    between atoms: _289  and  _290
REMARK  117  A    between atoms: _289  and  _292
REMARK  118  A    between atoms: _292  and  _293
REMARK  119  A    between atoms: _297  and  _298
REMARK  120  A    between atoms: _304  and  _305
REMARK  121  A    between atoms: _310  and  _312
REMARK  122  A    between atoms: _312  and  _313
REMARK  123  A    between atoms: _312  and  _315
REMARK  124  A    between atoms: _315  and  _316
REMARK  125  A    between atoms: _319  and  _321
REMARK  126  A    between atoms: _321  and  _322
REMARK  127  A    between atoms: _321  and  _324
REMARK  128  A    between atoms: _324  and  _325
REMARK  129  A    between atoms: _328  and  _330
REMARK  130  A    between atoms: _330  and  _331
REMARK  131  A    between atoms: _330  and  _333
REMARK  132  A    between atoms: _336  and  _338
REMARK  133  A    between atoms: _338  and  _339
REMARK  134  A    between atoms: _338  and  _341
REMARK  135  A    between atoms: _341  and  _342
REMARK  136  A    between atoms: _352  and  _354
REMARK  137  A    between atoms: _354  and  _355
REMARK  138  A    between atoms: _354  and  _357
REMARK  139  A    between atoms: _357  and  _358
REMARK  140  A    between atoms: _363  and  _365
REMARK  141  A    between atoms: _365  and  _366
REMARK  142  A    between atoms: _365  and  _368
REMARK  143  A    between atoms: _368  and  _369
REMARK  144  A    between atoms: _369  and  _370
REMARK  145  A    between atoms: _370  and  _371
REMARK                            x       y       z     vdW  Elec       q    Type
REMARK                         _______ _______ _______ _____ _____    ______ ____
ROOT
ATOM      1  O   HOH     1      18.370  -0.261  10.441  0.00  0.00    +0.000 OA
ENDROOT
TORSDOF 0
REMARK  Name = ../refined-set-2016/4jss/4jss_pocket.pdb
REMARK  145 active torsions:
REMARK  status: ('A' for Active; 'I' for Inactive)
REMARK    1  A    between atoms: _1  and  _3
REMARK    2  A    between atoms: _3  and  _4
REMARK    3  A    between atoms: _3  and  _6
REMARK    4  A    between atoms: _6  and  _7
REMARK    5  A    between atoms: _17  and  _19
REMARK    6  A    between atoms: _19  and  _20
REMARK    7  A    between atoms: _19  and  _22
REMARK    8  A    between atoms: _22  and  _23
REMARK    9  A    between atoms: _28  and  _29
REMARK   10  A    between atoms: _31  and  _33
REMARK   11  A    between atoms: _33  and  _34
REMARK   12  A    between atoms: _33  and  _36
REMARK   13  A    between atoms: _36  and  _37
REMARK   14  A    between atoms: _42  and  _44
REMARK   15  A    between atoms: _44  and  _45
REMARK   16  A    between atoms: _44  and  _47
REMARK   17  A    between atoms: _47  and  _48
REMARK   18  A    between atoms: _53  and  _55
REMARK   19  A    between atoms: _55  and  _56
REMARK   20  A    between atoms: _59  and  _61
REMARK   21  A    between atoms: _61  and  _62
REMARK   22  A    between atoms: _61  and  _64
REMARK   23  A    between atoms: _64  and  _65
REMARK   24  A    between atoms: _71  and  _73
REMARK   25  A    between atoms: _73  and  _74
REMARK   26  A    between atoms: _73  and  _76
REMARK   27  A    between atoms: _76  and  _77
REMARK   28  A    between atoms: _82  and  _84
REMARK   29  A    between atoms: _84  and  _85
REMARK   30  A    between atoms: _84  and  _87
REMARK   31  A    between atoms: _87  and  _88
REMARK   32  A    between atoms: _91  and  _93
REMARK   33  A    between atoms: _93  and  _94
REMARK   34  A    between atoms: _93  and  _96
REMARK   35  A    between atoms: _96  and  _97
REMARK   36  A    between atoms: _97  and  _98
REMARK   37  A    between atoms: _103  and  _105
REMARK   38  A    between atoms: _105  and  _106
REMARK   39  A    between atoms: _105  and  _108
REMARK   40  A    between atoms: _108  and  _109
REMARK   41  A    between atoms: _115  and  _117
REMARK   42  A    between atoms: _117  and  _118
REMARK   43  A    between atoms: _117  and  _120
REMARK   44  A    between atoms: _120  and  _121
REMARK   45  A    between atoms: _121  and  _123
REMARK   46  A    between atoms: _123  and  ZN_380
REMARK   47  A    between atoms: _124  and  _126
REMARK   48  A    between atoms: _126  and  _127
REMARK   49  A    between atoms: _126  and  _129
REMARK   50  A    between atoms: _129  and  _130
REMARK   51  A    between atoms: _136  and  _138
REMARK   52  A    between atoms: _138  and  _139
REMARK   53  A    between atoms: _138  and  _141
REMARK   54  A    between atoms: _141  and  _142
REMARK   55  A    between atoms: _147  and  _149
REMARK   56  A    between atoms: _149  and  _150
REMARK   57  A    between atoms: _149  and  _152
REMARK   58  A    between atoms: _152  and  _153
REMARK   59  A    between atoms: _153  and  _154
REMARK   60  A    between atoms: _157  and  _159
REMARK   61  A    between atoms: _159  and  _160
REMARK   62  A    between atoms: _159  and  _162
REMARK   63  A    between atoms: _162  and  _163
REMARK   64  A    between atoms: _163  and  _164
REMARK   65  A    between atoms: _167  and  _169
REMARK   66  A    between atoms: _169  and  _170
REMARK   67  A    between atoms: _169  and  _172
REMARK   68  A    between atoms: _172  and  _173
REMARK   69  A    between atoms: _176  and  _178
REMARK   70  A    between atoms: _178  and  _179
REMARK   71  A    between atoms: _178  and  _181
REMARK   72  A    between atoms: _181  and  _182
REMARK   73  A    between atoms: _183  and  ZN_380
REMARK   74  A    between atoms: _187  and  _189
REMARK   75  A    between atoms: _189  and  _190
REMARK   76  A    between atoms: _189  and  _192
REMARK   77  A    between atoms: _192  and  _193
REMARK   78  A    between atoms: _196  and  _198
REMARK   79  A    between atoms: _198  and  _199
REMARK   80  A    between atoms: _198  and  _201
REMARK   81  A    between atoms: _204  and  _206
REMARK   82  A    between atoms: _206  and  _207
REMARK   83  A    between atoms: _206  and  _209
REMARK   84  A    between atoms: _209  and  _210
REMARK   85  A    between atoms: _215  and  _217
REMARK   86  A    between atoms: _217  and  _218
REMARK   87  A    between atoms: _217  and  _220
REMARK   88  A    between atoms: _220  and  _221
REMARK   89  A    between atoms: _227  and  _229
REMARK   90  A    between atoms: _229  and  _230
REMARK   91  A    between atoms: _229  and  _232
REMARK   92  A    between atoms: _235  and  _237
REMARK   93  A    between atoms: _237  and  _238
REMARK   94  A    between atoms: _237  and  _240
REMARK   95  A    between atoms: _240  and  _241
REMARK   96  A    between atoms: _244  and  _246
REMARK   97  A    between atoms: _246  and  _247
REMARK   98  A    between atoms: _246  and  _249
REMARK   99  A    between atoms: _252  and  _254
REMARK  100  A    between atoms: _254  and  _255
REMARK  101  A    between atoms: _254  and  _257
REMARK  102  A    between atoms: _257  and  _258
REMARK  103  A    between atoms: _261  and  _263
REMARK  104  A    between atoms: _263  and  _264
REMARK  105  A    between atoms: _263  and  _266
REMARK  106  A    between atoms: _266  and  _267
REMARK  107  A    between atoms: _269  and  _271
REMARK  108  A    between atoms: _271  and  _272
REMARK  109  A    between atoms: _271  and  _274
REMARK  110  A    between atoms: _274  and  _275
REMARK  111  A    between atoms: _278  and  _280
REMARK  112  A    between atoms: _280  and  _281
REMARK  113  A    between atoms: _280  and  _283
REMARK  114  A    between atoms: _283  and  _284
REMARK  115  A    between atoms: _287  and  _289
REMARK  116  A    between atoms: _289  and  _290
REMARK  117  A    between atoms: _289  and  _292
REMARK  118  A    between atoms: _292  and  _293
REMARK  119  A    between atoms: _297  and  _298
REMARK  120  A    between atoms: _304  and  _305
REMARK  121  A    between atoms: _310  and  _312
REMARK  122  A    between atoms: _312  and  _313
REMARK  123  A    between atoms: _312  and  _315
REMARK  124  A    between atoms: _315  and  _316
REMARK  125  A    between atoms: _319  and  _321
REMARK  126  A    between atoms: _321  and  _322
REMARK  127  A    between atoms: _321  and  _324
REMARK  128  A    between atoms: _324  and  _325
REMARK  129  A    between atoms: _328  and  _330
REMARK  130  A    between atoms: _330  and  _331
REMARK  131  A    between atoms: _330  and  _333
REMARK  132  A    between atoms: _336  and  _338
REMARK  133  A    between atoms: _338  and  _339
REMARK  134  A    between atoms: _338  and  _341
REMARK  135  A    between atoms: _341  and  _342
REMARK  136  A    between atoms: _352  and  _354
REMARK  137  A    between atoms: _354  and  _355
REMARK  138  A    between atoms: _354  and  _357
REMARK  139  A    between atoms: _357  and  _358
REMARK  140  A    between atoms: _363  and  _365
REMARK  141  A    between atoms: _365  and  _366
REMARK  142  A    between atoms: _365  and  _368
REMARK  143  A    between atoms: _368  and  _369
REMARK  144  A    between atoms: _369  and  _370
REMARK  145  A    between atoms: _370  and  _371
REMARK                            x       y       z     vdW  Elec       q    Type
REMARK                         _______ _______ _______ _____ _____    ______ ____
ROOT
ATOM      1  O   HOH     1      15.176   0.012  18.017  0.00  0.00    +0.000 OA
ENDROOT
TORSDOF 0
REMARK  Name = ../refined-set-2016/4jss/4jss_pocket.pdb
REMARK  145 active torsions:
REMARK  status: ('A' for Active; 'I' for Inactive)
REMARK    1  A    between atoms: _1  and  _3
REMARK    2  A    between atoms: _3  and  _4
REMARK    3  A    between atoms: _3  and  _6
REMARK    4  A    between atoms: _6  and  _7
REMARK    5  A    between atoms: _17  and  _19
REMARK    6  A    between atoms: _19  and  _20
REMARK    7  A    between atoms: _19  and  _22
REMARK    8  A    between atoms: _22  and  _23
REMARK    9  A    between atoms: _28  and  _29
REMARK   10  A    between atoms: _31  and  _33
REMARK   11  A    between atoms: _33  and  _34
REMARK   12  A    between atoms: _33  and  _36
REMARK   13  A    between atoms: _36  and  _37
REMARK   14  A    between atoms: _42  and  _44
REMARK   15  A    between atoms: _44  and  _45
REMARK   16  A    between atoms: _44  and  _47
REMARK   17  A    between atoms: _47  and  _48
REMARK   18  A    between atoms: _53  and  _55
REMARK   19  A    between atoms: _55  and  _56
REMARK   20  A    between atoms: _59  and  _61
REMARK   21  A    between atoms: _61  and  _62
REMARK   22  A    between atoms: _61  and  _64
REMARK   23  A    between atoms: _64  and  _65
REMARK   24  A    between atoms: _71  and  _73
REMARK   25  A    between atoms: _73  and  _74
REMARK   26  A    between atoms: _73  and  _76
REMARK   27  A    between atoms: _76  and  _77
REMARK   28  A    between atoms: _82  and  _84
REMARK   29  A    between atoms: _84  and  _85
REMARK   30  A    between atoms: _84  and  _87
REMARK   31  A    between atoms: _87  and  _88
REMARK   32  A    between atoms: _91  and  _93
REMARK   33  A    between atoms: _93  and  _94
REMARK   34  A    between atoms: _93  and  _96
REMARK   35  A    between atoms: _96  and  _97
REMARK   36  A    between atoms: _97  and  _98
REMARK   37  A    between atoms: _103  and  _105
REMARK   38  A    between atoms: _105  and  _106
REMARK   39  A    between atoms: _105  and  _108
REMARK   40  A    between atoms: _108  and  _109
REMARK   41  A    between atoms: _115  and  _117
REMARK   42  A    between atoms: _117  and  _118
REMARK   43  A    between atoms: _117  and  _120
REMARK   44  A    between atoms: _120  and  _121
REMARK   45  A    between atoms: _121  and  _123
REMARK   46  A    between atoms: _123  and  ZN_380
REMARK   47  A    between atoms: _124  and  _126
REMARK   48  A    between atoms: _126  and  _127
REMARK   49  A    between atoms: _126  and  _129
REMARK   50  A    between atoms: _129  and  _130
REMARK   51  A    between atoms: _136  and  _138
REMARK   52  A    between atoms: _138  and  _139
REMARK   53  A    between atoms: _138  and  _141
REMARK   54  A    between atoms: _141  and  _142
REMARK   55  A    between atoms: _147  and  _149
REMARK   56  A    between atoms: _149  and  _150
REMARK   57  A    between atoms: _149  and  _152
REMARK   58  A    between atoms: _152  and  _153
REMARK   59  A    between atoms: _153  and  _154
REMARK   60  A    between atoms: _157  and  _159
REMARK   61  A    between atoms: _159  and  _160
REMARK   62  A    between atoms: _159  and  _162
REMARK   63  A    between atoms: _162  and  _163
REMARK   64  A    between atoms: _163  and  _164
REMARK   65  A    between atoms: _167  and  _169
REMARK   66  A    between atoms: _169  and  _170
REMARK   67  A    between atoms: _169  and  _172
REMARK   68  A    between atoms: _172  and  _173
REMARK   69  A    between atoms: _176  and  _178
REMARK   70  A    between atoms: _178  and  _179
REMARK   71  A    between atoms: _178  and  _181
REMARK   72  A    between atoms: _181  and  _182
REMARK   73  A    between atoms: _183  and  ZN_380
REMARK   74  A    between atoms: _187  and  _189
REMARK   75  A    between atoms: _189  and  _190
REMARK   76  A    between atoms: _189  and  _192
REMARK   77  A    between atoms: _192  and  _193
REMARK   78  A    between atoms: _196  and  _198
REMARK   79  A    between atoms: _198  and  _199
REMARK   80  A    between atoms: _198  and  _201
REMARK   81  A    between atoms: _204  and  _206
REMARK   82  A    between atoms: _206  and  _207
REMARK   83  A    between atoms: _206  and  _209
REMARK   84  A    between atoms: _209  and  _210
REMARK   85  A    between atoms: _215  and  _217
REMARK   86  A    between atoms: _217  and  _218
REMARK   87  A    between atoms: _217  and  _220
REMARK   88  A    between atoms: _220  and  _221
REMARK   89  A    between atoms: _227  and  _229
REMARK   90  A    between atoms: _229  and  _230
REMARK   91  A    between atoms: _229  and  _232
REMARK   92  A    between atoms: _235  and  _237
REMARK   93  A    between atoms: _237  and  _238
REMARK   94  A    between atoms: _237  and  _240
REMARK   95  A    between atoms: _240  and  _241
REMARK   96  A    between atoms: _244  and  _246
REMARK   97  A    between atoms: _246  and  _247
REMARK   98  A    between atoms: _246  and  _249
REMARK   99  A    between atoms: _252  and  _254
REMARK  100  A    between atoms: _254  and  _255
REMARK  101  A    between atoms: _254  and  _257
REMARK  102  A    between atoms: _257  and  _258
REMARK  103  A    between atoms: _261  and  _263
REMARK  104  A    between atoms: _263  and  _264
REMARK  105  A    between atoms: _263  and  _266
REMARK  106  A    between atoms: _266  and  _267
REMARK  107  A    between atoms: _269  and  _271
REMARK  108  A    between atoms: _271  and  _272
REMARK  109  A    between atoms: _271  and  _274
REMARK  110  A    between atoms: _274  and  _275
REMARK  111  A    between atoms: _278  and  _280
REMARK  112  A    between atoms: _280  and  _281
REMARK  113  A    between atoms: _280  and  _283
REMARK  114  A    between atoms: _283  and  _284
REMARK  115  A    between atoms: _287  and  _289
REMARK  116  A    between atoms: _289  and  _290
REMARK  117  A    between atoms: _289  and  _292
REMARK  118  A    between atoms: _292  and  _293
REMARK  119  A    between atoms: _297  and  _298
REMARK  120  A    between atoms: _304  and  _305
REMARK  121  A    between atoms: _310  and  _312
REMARK  122  A    between atoms: _312  and  _313
REMARK  123  A    between atoms: _312  and  _315
REMARK  124  A    between atoms: _315  and  _316
REMARK  125  A    between atoms: _319  and  _321
REMARK  126  A    between atoms: _321  and  _322
REMARK  127  A    between atoms: _321  and  _324
REMARK  128  A    between atoms: _324  and  _325
REMARK  129  A    between atoms: _328  and  _330
REMARK  130  A    between atoms: _330  and  _331
REMARK  131  A    between atoms: _330  and  _333
REMARK  132  A    between atoms: _336  and  _338
REMARK  133  A    between atoms: _338  and  _339
REMARK  134  A    between atoms: _338  and  _341
REMARK  135  A    between atoms: _341  and  _342
REMARK  136  A    between atoms: _352  and  _354
REMARK  137  A    between atoms: _354  and  _355
REMARK  138  A    between atoms: _354  and  _357
REMARK  139  A    between atoms: _357  and  _358
REMARK  140  A    between atoms: _363  and  _365
REMARK  141  A    between atoms: _365  and  _366
REMARK  142  A    between atoms: _365  and  _368
REMARK  143  A    between atoms: _368  and  _369
REMARK  144  A    between atoms: _369  and  _370
REMARK  145  A    between atoms: _370  and  _371
REMARK                            x       y       z     vdW  Elec       q    Type
REMARK                         _______ _______ _______ _____ _____    ______ ____
ROOT
ATOM      1  O   HOH     1      19.566   3.563  13.852  0.00  0.00    +0.000 OA
ENDROOT
TORSDOF 0
REMARK  Name = ../refined-set-2016/4jss/4jss_pocket.pdb
REMARK  145 active torsions:
REMARK  status: ('A' for Active; 'I' for Inactive)
REMARK    1  A    between atoms: _1  and  _3
REMARK    2  A    between atoms: _3  and  _4
REMARK    3  A    between atoms: _3  and  _6
REMARK    4  A    between atoms: _6  and  _7
REMARK    5  A    between atoms: _17  and  _19
REMARK    6  A    between atoms: _19  and  _20
REMARK    7  A    between atoms: _19  and  _22
REMARK    8  A    between atoms: _22  and  _23
REMARK    9  A    between atoms: _28  and  _29
REMARK   10  A    between atoms: _31  and  _33
REMARK   11  A    between atoms: _33  and  _34
REMARK   12  A    between atoms: _33  and  _36
REMARK   13  A    between atoms: _36  and  _37
REMARK   14  A    between atoms: _42  and  _44
REMARK   15  A    between atoms: _44  and  _45
REMARK   16  A    between atoms: _44  and  _47
REMARK   17  A    between atoms: _47  and  _48
REMARK   18  A    between atoms: _53  and  _55
REMARK   19  A    between atoms: _55  and  _56
REMARK   20  A    between atoms: _59  and  _61
REMARK   21  A    between atoms: _61  and  _62
REMARK   22  A    between atoms: _61  and  _64
REMARK   23  A    between atoms: _64  and  _65
REMARK   24  A    between atoms: _71  and  _73
REMARK   25  A    between atoms: _73  and  _74
REMARK   26  A    between atoms: _73  and  _76
REMARK   27  A    between atoms: _76  and  _77
REMARK   28  A    between atoms: _82  and  _84
REMARK   29  A    between atoms: _84  and  _85
REMARK   30  A    between atoms: _84  and  _87
REMARK   31  A    between atoms: _87  and  _88
REMARK   32  A    between atoms: _91  and  _93
REMARK   33  A    between atoms: _93  and  _94
REMARK   34  A    between atoms: _93  and  _96
REMARK   35  A    between atoms: _96  and  _97
REMARK   36  A    between atoms: _97  and  _98
REMARK   37  A    between atoms: _103  and  _105
REMARK   38  A    between atoms: _105  and  _106
REMARK   39  A    between atoms: _105  and  _108
REMARK   40  A    between atoms: _108  and  _109
REMARK   41  A    between atoms: _115  and  _117
REMARK   42  A    between atoms: _117  and  _118
REMARK   43  A    between atoms: _117  and  _120
REMARK   44  A    between atoms: _120  and  _121
REMARK   45  A    between atoms: _121  and  _123
REMARK   46  A    between atoms: _123  and  ZN_380
REMARK   47  A    between atoms: _124  and  _126
REMARK   48  A    between atoms: _126  and  _127
REMARK   49  A    between atoms: _126  and  _129
REMARK   50  A    between atoms: _129  and  _130
REMARK   51  A    between atoms: _136  and  _138
REMARK   52  A    between atoms: _138  and  _139
REMARK   53  A    between atoms: _138  and  _141
REMARK   54  A    between atoms: _141  and  _142
REMARK   55  A    between atoms: _147  and  _149
REMARK   56  A    between atoms: _149  and  _150
REMARK   57  A    between atoms: _149  and  _152
REMARK   58  A    between atoms: _152  and  _153
REMARK   59  A    between atoms: _153  and  _154
REMARK   60  A    between atoms: _157  and  _159
REMARK   61  A    between atoms: _159  and  _160
REMARK   62  A    between atoms: _159  and  _162
REMARK   63  A    between atoms: _162  and  _163
REMARK   64  A    between atoms: _163  and  _164
REMARK   65  A    between atoms: _167  and  _169
REMARK   66  A    between atoms: _169  and  _170
REMARK   67  A    between atoms: _169  and  _172
REMARK   68  A    between atoms: _172  and  _173
REMARK   69  A    between atoms: _176  and  _178
REMARK   70  A    between atoms: _178  and  _179
REMARK   71  A    between atoms: _178  and  _181
REMARK   72  A    between atoms: _181  and  _182
REMARK   73  A    between atoms: _183  and  ZN_380
REMARK   74  A    between atoms: _187  and  _189
REMARK   75  A    between atoms: _189  and  _190
REMARK   76  A    between atoms: _189  and  _192
REMARK   77  A    between atoms: _192  and  _193
REMARK   78  A    between atoms: _196  and  _198
REMARK   79  A    between atoms: _198  and  _199
REMARK   80  A    between atoms: _198  and  _201
REMARK   81  A    between atoms: _204  and  _206
REMARK   82  A    between atoms: _206  and  _207
REMARK   83  A    between atoms: _206  and  _209
REMARK   84  A    between atoms: _209  and  _210
REMARK   85  A    between atoms: _215  and  _217
REMARK   86  A    between atoms: _217  and  _218
REMARK   87  A    between atoms: _217  and  _220
REMARK   88  A    between atoms: _220  and  _221
REMARK   89  A    between atoms: _227  and  _229
REMARK   90  A    between atoms: _229  and  _230
REMARK   91  A    between atoms: _229  and  _232
REMARK   92  A    between atoms: _235  and  _237
REMARK   93  A    between atoms: _237  and  _238
REMARK   94  A    between atoms: _237  and  _240
REMARK   95  A    between atoms: _240  and  _241
REMARK   96  A    between atoms: _244  and  _246
REMARK   97  A    between atoms: _246  and  _247
REMARK   98  A    between atoms: _246  and  _249
REMARK   99  A    between atoms: _252  and  _254
REMARK  100  A    between atoms: _254  and  _255
REMARK  101  A    between atoms: _254  and  _257
REMARK  102  A    between atoms: _257  and  _258
REMARK  103  A    between atoms: _261  and  _263
REMARK  104  A    between atoms: _263  and  _264
REMARK  105  A    between atoms: _263  and  _266
REMARK  106  A    between atoms: _266  and  _267
REMARK  107  A    between atoms: _269  and  _271
REMARK  108  A    between atoms: _271  and  _272
REMARK  109  A    between atoms: _271  and  _274
REMARK  110  A    between atoms: _274  and  _275
REMARK  111  A    between atoms: _278  and  _280
REMARK  112  A    between atoms: _280  and  _281
REMARK  113  A    between atoms: _280  and  _283
REMARK  114  A    between atoms: _283  and  _284
REMARK  115  A    between atoms: _287  and  _289
REMARK  116  A    between atoms: _289  and  _290
REMARK  117  A    between atoms: _289  and  _292
REMARK  118  A    between atoms: _292  and  _293
REMARK  119  A    between atoms: _297  and  _298
REMARK  120  A    between atoms: _304  and  _305
REMARK  121  A    between atoms: _310  and  _312
REMARK  122  A    between atoms: _312  and  _313
REMARK  123  A    between atoms: _312  and  _315
REMARK  124  A    between atoms: _315  and  _316
REMARK  125  A    between atoms: _319  and  _321
REMARK  126  A    between atoms: _321  and  _322
REMARK  127  A    between atoms: _321  and  _324
REMARK  128  A    between atoms: _324  and  _325
REMARK  129  A    between atoms: _328  and  _330
REMARK  130  A    between atoms: _330  and  _331
REMARK  131  A    between atoms: _330  and  _333
REMARK  132  A    between atoms: _336  and  _338
REMARK  133  A    between atoms: _338  and  _339
REMARK  134  A    between atoms: _338  and  _341
REMARK  135  A    between atoms: _341  and  _342
REMARK  136  A    between atoms: _352  and  _354
REMARK  137  A    between atoms: _354  and  _355
REMARK  138  A    between atoms: _354  and  _357
REMARK  139  A    between atoms: _357  and  _358
REMARK  140  A    between atoms: _363  and  _365
REMARK  141  A    between atoms: _365  and  _366
REMARK  142  A    between atoms: _365  and  _368
REMARK  143  A    between atoms: _368  and  _369
REMARK  144  A    between atoms: _369  and  _370
REMARK  145  A    between atoms: _370  and  _371
REMARK                            x       y       z     vdW  Elec       q    Type
REMARK                         _______ _______ _______ _____ _____    ______ ____
ROOT
ATOM      1  O   HOH     1      17.927   5.961  14.087  0.00  0.00    +0.000 OA
ENDROOT
TORSDOF 0
REMARK  Name = ../refined-set-2016/4jss/4jss_pocket.pdb
REMARK  145 active torsions:
REMARK  status: ('A' for Active; 'I' for Inactive)
REMARK    1  A    between atoms: _1  and  _3
REMARK    2  A    between atoms: _3  and  _4
REMARK    3  A    between atoms: _3  and  _6
REMARK    4  A    between atoms: _6  and  _7
REMARK    5  A    between atoms: _17  and  _19
REMARK    6  A    between atoms: _19  and  _20
REMARK    7  A    between atoms: _19  and  _22
REMARK    8  A    between atoms: _22  and  _23
REMARK    9  A    between atoms: _28  and  _29
REMARK   10  A    between atoms: _31  and  _33
REMARK   11  A    between atoms: _33  and  _34
REMARK   12  A    between atoms: _33  and  _36
REMARK   13  A    between atoms: _36  and  _37
REMARK   14  A    between atoms: _42  and  _44
REMARK   15  A    between atoms: _44  and  _45
REMARK   16  A    between atoms: _44  and  _47
REMARK   17  A    between atoms: _47  and  _48
REMARK   18  A    between atoms: _53  and  _55
REMARK   19  A    between atoms: _55  and  _56
REMARK   20  A    between atoms: _59  and  _61
REMARK   21  A    between atoms: _61  and  _62
REMARK   22  A    between atoms: _61  and  _64
REMARK   23  A    between atoms: _64  and  _65
REMARK   24  A    between atoms: _71  and  _73
REMARK   25  A    between atoms: _73  and  _74
REMARK   26  A    between atoms: _73  and  _76
REMARK   27  A    between atoms: _76  and  _77
REMARK   28  A    between atoms: _82  and  _84
REMARK   29  A    between atoms: _84  and  _85
REMARK   30  A    between atoms: _84  and  _87
REMARK   31  A    between atoms: _87  and  _88
REMARK   32  A    between atoms: _91  and  _93
REMARK   33  A    between atoms: _93  and  _94
REMARK   34  A    between atoms: _93  and  _96
REMARK   35  A    between atoms: _96  and  _97
REMARK   36  A    between atoms: _97  and  _98
REMARK   37  A    between atoms: _103  and  _105
REMARK   38  A    between atoms: _105  and  _106
REMARK   39  A    between atoms: _105  and  _108
REMARK   40  A    between atoms: _108  and  _109
REMARK   41  A    between atoms: _115  and  _117
REMARK   42  A    between atoms: _117  and  _118
REMARK   43  A    between atoms: _117  and  _120
REMARK   44  A    between atoms: _120  and  _121
REMARK   45  A    between atoms: _121  and  _123
REMARK   46  A    between atoms: _123  and  ZN_380
REMARK   47  A    between atoms: _124  and  _126
REMARK   48  A    between atoms: _126  and  _127
REMARK   49  A    between atoms: _126  and  _129
REMARK   50  A    between atoms: _129  and  _130
REMARK   51  A    between atoms: _136  and  _138
REMARK   52  A    between atoms: _138  and  _139
REMARK   53  A    between atoms: _138  and  _141
REMARK   54  A    between atoms: _141  and  _142
REMARK   55  A    between atoms: _147  and  _149
REMARK   56  A    between atoms: _149  and  _150
REMARK   57  A    between atoms: _149  and  _152
REMARK   58  A    between atoms: _152  and  _153
REMARK   59  A    between atoms: _153  and  _154
REMARK   60  A    between atoms: _157  and  _159
REMARK   61  A    between atoms: _159  and  _160
REMARK   62  A    between atoms: _159  and  _162
REMARK   63  A    between atoms: _162  and  _163
REMARK   64  A    between atoms: _163  and  _164
REMARK   65  A    between atoms: _167  and  _169
REMARK   66  A    between atoms: _169  and  _170
REMARK   67  A    between atoms: _169  and  _172
REMARK   68  A    between atoms: _172  and  _173
REMARK   69  A    between atoms: _176  and  _178
REMARK   70  A    between atoms: _178  and  _179
REMARK   71  A    between atoms: _178  and  _181
REMARK   72  A    between atoms: _181  and  _182
REMARK   73  A    between atoms: _183  and  ZN_380
REMARK   74  A    between atoms: _187  and  _189
REMARK   75  A    between atoms: _189  and  _190
REMARK   76  A    between atoms: _189  and  _192
REMARK   77  A    between atoms: _192  and  _193
REMARK   78  A    between atoms: _196  and  _198
REMARK   79  A    between atoms: _198  and  _199
REMARK   80  A    between atoms: _198  and  _201
REMARK   81  A    between atoms: _204  and  _206
REMARK   82  A    between atoms: _206  and  _207
REMARK   83  A    between atoms: _206  and  _209
REMARK   84  A    between atoms: _209  and  _210
REMARK   85  A    between atoms: _215  and  _217
REMARK   86  A    between atoms: _217  and  _218
REMARK   87  A    between atoms: _217  and  _220
REMARK   88  A    between atoms: _220  and  _221
REMARK   89  A    between atoms: _227  and  _229
REMARK   90  A    between atoms: _229  and  _230
REMARK   91  A    between atoms: _229  and  _232
REMARK   92  A    between atoms: _235  and  _237
REMARK   93  A    between atoms: _237  and  _238
REMARK   94  A    between atoms: _237  and  _240
REMARK   95  A    between atoms: _240  and  _241
REMARK   96  A    between atoms: _244  and  _246
REMARK   97  A    between atoms: _246  and  _247
REMARK   98  A    between atoms: _246  and  _249
REMARK   99  A    between atoms: _252  and  _254
REMARK  100  A    between atoms: _254  and  _255
REMARK  101  A    between atoms: _254  and  _257
REMARK  102  A    between atoms: _257  and  _258
REMARK  103  A    between atoms: _261  and  _263
REMARK  104  A    between atoms: _263  and  _264
REMARK  105  A    between atoms: _263  and  _266
REMARK  106  A    between atoms: _266  and  _267
REMARK  107  A    between atoms: _269  and  _271
REMARK  108  A    between atoms: _271  and  _272
REMARK  109  A    between atoms: _271  and  _274
REMARK  110  A    between atoms: _274  and  _275
REMARK  111  A    between atoms: _278  and  _280
REMARK  112  A    between atoms: _280  and  _281
REMARK  113  A    between atoms: _280  and  _283
REMARK  114  A    between atoms: _283  and  _284
REMARK  115  A    between atoms: _287  and  _289
REMARK  116  A    between atoms: _289  and  _290
REMARK  117  A    between atoms: _289  and  _292
REMARK  118  A    between atoms: _292  and  _293
REMARK  119  A    between atoms: _297  and  _298
REMARK  120  A    between atoms: _304  and  _305
REMARK  121  A    between atoms: _310  and  _312
REMARK  122  A    between atoms: _312  and  _313
REMARK  123  A    between atoms: _312  and  _315
REMARK  124  A    between atoms: _315  and  _316
REMARK  125  A    between atoms: _319  and  _321
REMARK  126  A    between atoms: _321  and  _322
REMARK  127  A    between atoms: _321  and  _324
REMARK  128  A    between atoms: _324  and  _325
REMARK  129  A    between atoms: _328  and  _330
REMARK  130  A    between atoms: _330  and  _331
REMARK  131  A    between atoms: _330  and  _333
REMARK  132  A    between atoms: _336  and  _338
REMARK  133  A    between atoms: _338  and  _339
REMARK  134  A    between atoms: _338  and  _341
REMARK  135  A    between atoms: _341  and  _342
REMARK  136  A    between atoms: _352  and  _354
REMARK  137  A    between atoms: _354  and  _355
REMARK  138  A    between atoms: _354  and  _357
REMARK  139  A    between atoms: _357  and  _358
REMARK  140  A    between atoms: _363  and  _365
REMARK  141  A    between atoms: _365  and  _366
REMARK  142  A    between atoms: _365  and  _368
REMARK  143  A    between atoms: _368  and  _369
REMARK  144  A    between atoms: _369  and  _370
REMARK  145  A    between atoms: _370  and  _371
REMARK                            x       y       z     vdW  Elec       q    Type
REMARK                         _______ _______ _______ _____ _____    ______ ____
ROOT
ATOM      1  O   HOH     1      20.783   9.583  14.956  0.00  0.00    +0.000 OA
ENDROOT
TORSDOF 0
REMARK  Name = ../refined-set-2016/4jss/4jss_pocket.pdb
REMARK  145 active torsions:
REMARK  status: ('A' for Active; 'I' for Inactive)
REMARK    1  A    between atoms: _1  and  _3
REMARK    2  A    between atoms: _3  and  _4
REMARK    3  A    between atoms: _3  and  _6
REMARK    4  A    between atoms: _6  and  _7
REMARK    5  A    between atoms: _17  and  _19
REMARK    6  A    between atoms: _19  and  _20
REMARK    7  A    between atoms: _19  and  _22
REMARK    8  A    between atoms: _22  and  _23
REMARK    9  A    between atoms: _28  and  _29
REMARK   10  A    between atoms: _31  and  _33
REMARK   11  A    between atoms: _33  and  _34
REMARK   12  A    between atoms: _33  and  _36
REMARK   13  A    between atoms: _36  and  _37
REMARK   14  A    between atoms: _42  and  _44
REMARK   15  A    between atoms: _44  and  _45
REMARK   16  A    between atoms: _44  and  _47
REMARK   17  A    between atoms: _47  and  _48
REMARK   18  A    between atoms: _53  and  _55
REMARK   19  A    between atoms: _55  and  _56
REMARK   20  A    between atoms: _59  and  _61
REMARK   21  A    between atoms: _61  and  _62
REMARK   22  A    between atoms: _61  and  _64
REMARK   23  A    between atoms: _64  and  _65
REMARK   24  A    between atoms: _71  and  _73
REMARK   25  A    between atoms: _73  and  _74
REMARK   26  A    between atoms: _73  and  _76
REMARK   27  A    between atoms: _76  and  _77
REMARK   28  A    between atoms: _82  and  _84
REMARK   29  A    between atoms: _84  and  _85
REMARK   30  A    between atoms: _84  and  _87
REMARK   31  A    between atoms: _87  and  _88
REMARK   32  A    between atoms: _91  and  _93
REMARK   33  A    between atoms: _93  and  _94
REMARK   34  A    between atoms: _93  and  _96
REMARK   35  A    between atoms: _96  and  _97
REMARK   36  A    between atoms: _97  and  _98
REMARK   37  A    between atoms: _103  and  _105
REMARK   38  A    between atoms: _105  and  _106
REMARK   39  A    between atoms: _105  and  _108
REMARK   40  A    between atoms: _108  and  _109
REMARK   41  A    between atoms: _115  and  _117
REMARK   42  A    between atoms: _117  and  _118
REMARK   43  A    between atoms: _117  and  _120
REMARK   44  A    between atoms: _120  and  _121
REMARK   45  A    between atoms: _121  and  _123
REMARK   46  A    between atoms: _123  and  ZN_380
REMARK   47  A    between atoms: _124  and  _126
REMARK   48  A    between atoms: _126  and  _127
REMARK   49  A    between atoms: _126  and  _129
REMARK   50  A    between atoms: _129  and  _130
REMARK   51  A    between atoms: _136  and  _138
REMARK   52  A    between atoms: _138  and  _139
REMARK   53  A    between atoms: _138  and  _141
REMARK   54  A    between atoms: _141  and  _142
REMARK   55  A    between atoms: _147  and  _149
REMARK   56  A    between atoms: _149  and  _150
REMARK   57  A    between atoms: _149  and  _152
REMARK   58  A    between atoms: _152  and  _153
REMARK   59  A    between atoms: _153  and  _154
REMARK   60  A    between atoms: _157  and  _159
REMARK   61  A    between atoms: _159  and  _160
REMARK   62  A    between atoms: _159  and  _162
REMARK   63  A    between atoms: _162  and  _163
REMARK   64  A    between atoms: _163  and  _164
REMARK   65  A    between atoms: _167  and  _169
REMARK   66  A    between atoms: _169  and  _170
REMARK   67  A    between atoms: _169  and  _172
REMARK   68  A    between atoms: _172  and  _173
REMARK   69  A    between atoms: _176  and  _178
REMARK   70  A    between atoms: _178  and  _179
REMARK   71  A    between atoms: _178  and  _181
REMARK   72  A    between atoms: _181  and  _182
REMARK   73  A    between atoms: _183  and  ZN_380
REMARK   74  A    between atoms: _187  and  _189
REMARK   75  A    between atoms: _189  and  _190
REMARK   76  A    between atoms: _189  and  _192
REMARK   77  A    between atoms: _192  and  _193
REMARK   78  A    between atoms: _196  and  _198
REMARK   79  A    between atoms: _198  and  _199
REMARK   80  A    between atoms: _198  and  _201
REMARK   81  A    between atoms: _204  and  _206
REMARK   82  A    between atoms: _206  and  _207
REMARK   83  A    between atoms: _206  and  _209
REMARK   84  A    between atoms: _209  and  _210
REMARK   85  A    between atoms: _215  and  _217
REMARK   86  A    between atoms: _217  and  _218
REMARK   87  A    between atoms: _217  and  _220
REMARK   88  A    between atoms: _220  and  _221
REMARK   89  A    between atoms: _227  and  _229
REMARK   90  A    between atoms: _229  and  _230
REMARK   91  A    between atoms: _229  and  _232
REMARK   92  A    between atoms: _235  and  _237
REMARK   93  A    between atoms: _237  and  _238
REMARK   94  A    between atoms: _237  and  _240
REMARK   95  A    between atoms: _240  and  _241
REMARK   96  A    between atoms: _244  and  _246
REMARK   97  A    between atoms: _246  and  _247
REMARK   98  A    between atoms: _246  and  _249
REMARK   99  A    between atoms: _252  and  _254
REMARK  100  A    between atoms: _254  and  _255
REMARK  101  A    between atoms: _254  and  _257
REMARK  102  A    between atoms: _257  and  _258
REMARK  103  A    between atoms: _261  and  _263
REMARK  104  A    between atoms: _263  and  _264
REMARK  105  A    between atoms: _263  and  _266
REMARK  106  A    between atoms: _266  and  _267
REMARK  107  A    between atoms: _269  and  _271
REMARK  108  A    between atoms: _271  and  _272
REMARK  109  A    between atoms: _271  and  _274
REMARK  110  A    between atoms: _274  and  _275
REMARK  111  A    between atoms: _278  and  _280
REMARK  112  A    between atoms: _280  and  _281
REMARK  113  A    between atoms: _280  and  _283
REMARK  114  A    between atoms: _283  and  _284
REMARK  115  A    between atoms: _287  and  _289
REMARK  116  A    between atoms: _289  and  _290
REMARK  117  A    between atoms: _289  and  _292
REMARK  118  A    between atoms: _292  and  _293
REMARK  119  A    between atoms: _297  and  _298
REMARK  120  A    between atoms: _304  and  _305
REMARK  121  A    between atoms: _310  and  _312
REMARK  122  A    between atoms: _312  and  _313
REMARK  123  A    between atoms: _312  and  _315
REMARK  124  A    between atoms: _315  and  _316
REMARK  125  A    between atoms: _319  and  _321
REMARK  126  A    between atoms: _321  and  _322
REMARK  127  A    between atoms: _321  and  _324
REMARK  128  A    between atoms: _324  and  _325
REMARK  129  A    between atoms: _328  and  _330
REMARK  130  A    between atoms: _330  and  _331
REMARK  131  A    between atoms: _330  and  _333
REMARK  132  A    between atoms: _336  and  _338
REMARK  133  A    between atoms: _338  and  _339
REMARK  134  A    between atoms: _338  and  _341
REMARK  135  A    between atoms: _341  and  _342
REMARK  136  A    between atoms: _352  and  _354
REMARK  137  A    between atoms: _354  and  _355
REMARK  138  A    between atoms: _354  and  _357
REMARK  139  A    between atoms: _357  and  _358
REMARK  140  A    between atoms: _363  and  _365
REMARK  141  A    between atoms: _365  and  _366
REMARK  142  A    between atoms: _365  and  _368
REMARK  143  A    between atoms: _368  and  _369
REMARK  144  A    between atoms: _369  and  _370
REMARK  145  A    between atoms: _370  and  _371
REMARK                            x       y       z     vdW  Elec       q    Type
REMARK                         _______ _______ _______ _____ _____    ______ ____
ROOT
ATOM      1  O   HOH     1      12.687   7.057   8.148  0.00  0.00    +0.000 OA
ENDROOT
TORSDOF 0
REMARK  Name = ../refined-set-2016/4jss/4jss_pocket.pdb
REMARK  145 active torsions:
REMARK  status: ('A' for Active; 'I' for Inactive)
REMARK    1  A    between atoms: _1  and  _3
REMARK    2  A    between atoms: _3  and  _4
REMARK    3  A    between atoms: _3  and  _6
REMARK    4  A    between atoms: _6  and  _7
REMARK    5  A    between atoms: _17  and  _19
REMARK    6  A    between atoms: _19  and  _20
REMARK    7  A    between atoms: _19  and  _22
REMARK    8  A    between atoms: _22  and  _23
REMARK    9  A    between atoms: _28  and  _29
REMARK   10  A    between atoms: _31  and  _33
REMARK   11  A    between atoms: _33  and  _34
REMARK   12  A    between atoms: _33  and  _36
REMARK   13  A    between atoms: _36  and  _37
REMARK   14  A    between atoms: _42  and  _44
REMARK   15  A    between atoms: _44  and  _45
REMARK   16  A    between atoms: _44  and  _47
REMARK   17  A    between atoms: _47  and  _48
REMARK   18  A    between atoms: _53  and  _55
REMARK   19  A    between atoms: _55  and  _56
REMARK   20  A    between atoms: _59  and  _61
REMARK   21  A    between atoms: _61  and  _62
REMARK   22  A    between atoms: _61  and  _64
REMARK   23  A    between atoms: _64  and  _65
REMARK   24  A    between atoms: _71  and  _73
REMARK   25  A    between atoms: _73  and  _74
REMARK   26  A    between atoms: _73  and  _76
REMARK   27  A    between atoms: _76  and  _77
REMARK   28  A    between atoms: _82  and  _84
REMARK   29  A    between atoms: _84  and  _85
REMARK   30  A    between atoms: _84  and  _87
REMARK   31  A    between atoms: _87  and  _88
REMARK   32  A    between atoms: _91  and  _93
REMARK   33  A    between atoms: _93  and  _94
REMARK   34  A    between atoms: _93  and  _96
REMARK   35  A    between atoms: _96  and  _97
REMARK   36  A    between atoms: _97  and  _98
REMARK   37  A    between atoms: _103  and  _105
REMARK   38  A    between atoms: _105  and  _106
REMARK   39  A    between atoms: _105  and  _108
REMARK   40  A    between atoms: _108  and  _109
REMARK   41  A    between atoms: _115  and  _117
REMARK   42  A    between atoms: _117  and  _118
REMARK   43  A    between atoms: _117  and  _120
REMARK   44  A    between atoms: _120  and  _121
REMARK   45  A    between atoms: _121  and  _123
REMARK   46  A    between atoms: _123  and  ZN_380
REMARK   47  A    between atoms: _124  and  _126
REMARK   48  A    between atoms: _126  and  _127
REMARK   49  A    between atoms: _126  and  _129
REMARK   50  A    between atoms: _129  and  _130
REMARK   51  A    between atoms: _136  and  _138
REMARK   52  A    between atoms: _138  and  _139
REMARK   53  A    between atoms: _138  and  _141
REMARK   54  A    between atoms: _141  and  _142
REMARK   55  A    between atoms: _147  and  _149
REMARK   56  A    between atoms: _149  and  _150
REMARK   57  A    between atoms: _149  and  _152
REMARK   58  A    between atoms: _152  and  _153
REMARK   59  A    between atoms: _153  and  _154
REMARK   60  A    between atoms: _157  and  _159
REMARK   61  A    between atoms: _159  and  _160
REMARK   62  A    between atoms: _159  and  _162
REMARK   63  A    between atoms: _162  and  _163
REMARK   64  A    between atoms: _163  and  _164
REMARK   65  A    between atoms: _167  and  _169
REMARK   66  A    between atoms: _169  and  _170
REMARK   67  A    between atoms: _169  and  _172
REMARK   68  A    between atoms: _172  and  _173
REMARK   69  A    between atoms: _176  and  _178
REMARK   70  A    between atoms: _178  and  _179
REMARK   71  A    between atoms: _178  and  _181
REMARK   72  A    between atoms: _181  and  _182
REMARK   73  A    between atoms: _183  and  ZN_380
REMARK   74  A    between atoms: _187  and  _189
REMARK   75  A    between atoms: _189  and  _190
REMARK   76  A    between atoms: _189  and  _192
REMARK   77  A    between atoms: _192  and  _193
REMARK   78  A    between atoms: _196  and  _198
REMARK   79  A    between atoms: _198  and  _199
REMARK   80  A    between atoms: _198  and  _201
REMARK   81  A    between atoms: _204  and  _206
REMARK   82  A    between atoms: _206  and  _207
REMARK   83  A    between atoms: _206  and  _209
REMARK   84  A    between atoms: _209  and  _210
REMARK   85  A    between atoms: _215  and  _217
REMARK   86  A    between atoms: _217  and  _218
REMARK   87  A    between atoms: _217  and  _220
REMARK   88  A    between atoms: _220  and  _221
REMARK   89  A    between atoms: _227  and  _229
REMARK   90  A    between atoms: _229  and  _230
REMARK   91  A    between atoms: _229  and  _232
REMARK   92  A    between atoms: _235  and  _237
REMARK   93  A    between atoms: _237  and  _238
REMARK   94  A    between atoms: _237  and  _240
REMARK   95  A    between atoms: _240  and  _241
REMARK   96  A    between atoms: _244  and  _246
REMARK   97  A    between atoms: _246  and  _247
REMARK   98  A    between atoms: _246  and  _249
REMARK   99  A    between atoms: _252  and  _254
REMARK  100  A    between atoms: _254  and  _255
REMARK  101  A    between atoms: _254  and  _257
REMARK  102  A    between atoms: _257  and  _258
REMARK  103  A    between atoms: _261  and  _263
REMARK  104  A    between atoms: _263  and  _264
REMARK  105  A    between atoms: _263  and  _266
REMARK  106  A    between atoms: _266  and  _267
REMARK  107  A    between atoms: _269  and  _271
REMARK  108  A    between atoms: _271  and  _272
REMARK  109  A    between atoms: _271  and  _274
REMARK  110  A    between atoms: _274  and  _275
REMARK  111  A    between atoms: _278  and  _280
REMARK  112  A    between atoms: _280  and  _281
REMARK  113  A    between atoms: _280  and  _283
REMARK  114  A    between atoms: _283  and  _284
REMARK  115  A    between atoms: _287  and  _289
REMARK  116  A    between atoms: _289  and  _290
REMARK  117  A    between atoms: _289  and  _292
REMARK  118  A    between atoms: _292  and  _293
REMARK  119  A    between atoms: _297  and  _298
REMARK  120  A    between atoms: _304  and  _305
REMARK  121  A    between atoms: _310  and  _312
REMARK  122  A    between atoms: _312  and  _313
REMARK  123  A    between atoms: _312  and  _315
REMARK  124  A    between atoms: _315  and  _316
REMARK  125  A    between atoms: _319  and  _321
REMARK  126  A    between atoms: _321  and  _322
REMARK  127  A    between atoms: _321  and  _324
REMARK  128  A    between atoms: _324  and  _325
REMARK  129  A    between atoms: _328  and  _330
REMARK  130  A    between atoms: _330  and  _331
REMARK  131  A    between atoms: _330  and  _333
REMARK  132  A    between atoms: _336  and  _338
REMARK  133  A    between atoms: _338  and  _339
REMARK  134  A    between atoms: _338  and  _341
REMARK  135  A    between atoms: _341  and  _342
REMARK  136  A    between atoms: _352  and  _354
REMARK  137  A    between atoms: _354  and  _355
REMARK  138  A    between atoms: _354  and  _357
REMARK  139  A    between atoms: _357  and  _358
REMARK  140  A    between atoms: _363  and  _365
REMARK  141  A    between atoms: _365  and  _366
REMARK  142  A    between atoms: _365  and  _368
REMARK  143  A    between atoms: _368  and  _369
REMARK  144  A    between atoms: _369  and  _370
REMARK  145  A    between atoms: _370  and  _371
REMARK                            x       y       z     vdW  Elec       q    Type
REMARK                         _______ _______ _______ _____ _____    ______ ____
ROOT
ATOM      1  O   HOH     1      14.018   5.664   5.956  0.00  0.00    +0.000 OA
ENDROOT
TORSDOF 0
REMARK  Name = ../refined-set-2016/4jss/4jss_pocket.pdb
REMARK  145 active torsions:
REMARK  status: ('A' for Active; 'I' for Inactive)
REMARK    1  A    between atoms: _1  and  _3
REMARK    2  A    between atoms: _3  and  _4
REMARK    3  A    between atoms: _3  and  _6
REMARK    4  A    between atoms: _6  and  _7
REMARK    5  A    between atoms: _17  and  _19
REMARK    6  A    between atoms: _19  and  _20
REMARK    7  A    between atoms: _19  and  _22
REMARK    8  A    between atoms: _22  and  _23
REMARK    9  A    between atoms: _28  and  _29
REMARK   10  A    between atoms: _31  and  _33
REMARK   11  A    between atoms: _33  and  _34
REMARK   12  A    between atoms: _33  and  _36
REMARK   13  A    between atoms: _36  and  _37
REMARK   14  A    between atoms: _42  and  _44
REMARK   15  A    between atoms: _44  and  _45
REMARK   16  A    between atoms: _44  and  _47
REMARK   17  A    between atoms: _47  and  _48
REMARK   18  A    between atoms: _53  and  _55
REMARK   19  A    between atoms: _55  and  _56
REMARK   20  A    between atoms: _59  and  _61
REMARK   21  A    between atoms: _61  and  _62
REMARK   22  A    between atoms: _61  and  _64
REMARK   23  A    between atoms: _64  and  _65
REMARK   24  A    between atoms: _71  and  _73
REMARK   25  A    between atoms: _73  and  _74
REMARK   26  A    between atoms: _73  and  _76
REMARK   27  A    between atoms: _76  and  _77
REMARK   28  A    between atoms: _82  and  _84
REMARK   29  A    between atoms: _84  and  _85
REMARK   30  A    between atoms: _84  and  _87
REMARK   31  A    between atoms: _87  and  _88
REMARK   32  A    between atoms: _91  and  _93
REMARK   33  A    between atoms: _93  and  _94
REMARK   34  A    between atoms: _93  and  _96
REMARK   35  A    between atoms: _96  and  _97
REMARK   36  A    between atoms: _97  and  _98
REMARK   37  A    between atoms: _103  and  _105
REMARK   38  A    between atoms: _105  and  _106
REMARK   39  A    between atoms: _105  and  _108
REMARK   40  A    between atoms: _108  and  _109
REMARK   41  A    between atoms: _115  and  _117
REMARK   42  A    between atoms: _117  and  _118
REMARK   43  A    between atoms: _117  and  _120
REMARK   44  A    between atoms: _120  and  _121
REMARK   45  A    between atoms: _121  and  _123
REMARK   46  A    between atoms: _123  and  ZN_380
REMARK   47  A    between atoms: _124  and  _126
REMARK   48  A    between atoms: _126  and  _127
REMARK   49  A    between atoms: _126  and  _129
REMARK   50  A    between atoms: _129  and  _130
REMARK   51  A    between atoms: _136  and  _138
REMARK   52  A    between atoms: _138  and  _139
REMARK   53  A    between atoms: _138  and  _141
REMARK   54  A    between atoms: _141  and  _142
REMARK   55  A    between atoms: _147  and  _149
REMARK   56  A    between atoms: _149  and  _150
REMARK   57  A    between atoms: _149  and  _152
REMARK   58  A    between atoms: _152  and  _153
REMARK   59  A    between atoms: _153  and  _154
REMARK   60  A    between atoms: _157  and  _159
REMARK   61  A    between atoms: _159  and  _160
REMARK   62  A    between atoms: _159  and  _162
REMARK   63  A    between atoms: _162  and  _163
REMARK   64  A    between atoms: _163  and  _164
REMARK   65  A    between atoms: _167  and  _169
REMARK   66  A    between atoms: _169  and  _170
REMARK   67  A    between atoms: _169  and  _172
REMARK   68  A    between atoms: _172  and  _173
REMARK   69  A    between atoms: _176  and  _178
REMARK   70  A    between atoms: _178  and  _179
REMARK   71  A    between atoms: _178  and  _181
REMARK   72  A    between atoms: _181  and  _182
REMARK   73  A    between atoms: _183  and  ZN_380
REMARK   74  A    between atoms: _187  and  _189
REMARK   75  A    between atoms: _189  and  _190
REMARK   76  A    between atoms: _189  and  _192
REMARK   77  A    between atoms: _192  and  _193
REMARK   78  A    between atoms: _196  and  _198
REMARK   79  A    between atoms: _198  and  _199
REMARK   80  A    between atoms: _198  and  _201
REMARK   81  A    between atoms: _204  and  _206
REMARK   82  A    between atoms: _206  and  _207
REMARK   83  A    between atoms: _206  and  _209
REMARK   84  A    between atoms: _209  and  _210
REMARK   85  A    between atoms: _215  and  _217
REMARK   86  A    between atoms: _217  and  _218
REMARK   87  A    between atoms: _217  and  _220
REMARK   88  A    between atoms: _220  and  _221
REMARK   89  A    between atoms: _227  and  _229
REMARK   90  A    between atoms: _229  and  _230
REMARK   91  A    between atoms: _229  and  _232
REMARK   92  A    between atoms: _235  and  _237
REMARK   93  A    between atoms: _237  and  _238
REMARK   94  A    between atoms: _237  and  _240
REMARK   95  A    between atoms: _240  and  _241
REMARK   96  A    between atoms: _244  and  _246
REMARK   97  A    between atoms: _246  and  _247
REMARK   98  A    between atoms: _246  and  _249
REMARK   99  A    between atoms: _252  and  _254
REMARK  100  A    between atoms: _254  and  _255
REMARK  101  A    between atoms: _254  and  _257
REMARK  102  A    between atoms: _257  and  _258
REMARK  103  A    between atoms: _261  and  _263
REMARK  104  A    between atoms: _263  and  _264
REMARK  105  A    between atoms: _263  and  _266
REMARK  106  A    between atoms: _266  and  _267
REMARK  107  A    between atoms: _269  and  _271
REMARK  108  A    between atoms: _271  and  _272
REMARK  109  A    between atoms: _271  and  _274
REMARK  110  A    between atoms: _274  and  _275
REMARK  111  A    between atoms: _278  and  _280
REMARK  112  A    between atoms: _280  and  _281
REMARK  113  A    between atoms: _280  and  _283
REMARK  114  A    between atoms: _283  and  _284
REMARK  115  A    between atoms: _287  and  _289
REMARK  116  A    between atoms: _289  and  _290
REMARK  117  A    between atoms: _289  and  _292
REMARK  118  A    between atoms: _292  and  _293
REMARK  119  A    between atoms: _297  and  _298
REMARK  120  A    between atoms: _304  and  _305
REMARK  121  A    between atoms: _310  and  _312
REMARK  122  A    between atoms: _312  and  _313
REMARK  123  A    between atoms: _312  and  _315
REMARK  124  A    between atoms: _315  and  _316
REMARK  125  A    between atoms: _319  and  _321
REMARK  126  A    between atoms: _321  and  _322
REMARK  127  A    between atoms: _321  and  _324
REMARK  128  A    between atoms: _324  and  _325
REMARK  129  A    between atoms: _328  and  _330
REMARK  130  A    between atoms: _330  and  _331
REMARK  131  A    between atoms: _330  and  _333
REMARK  132  A    between atoms: _336  and  _338
REMARK  133  A    between atoms: _338  and  _339
REMARK  134  A    between atoms: _338  and  _341
REMARK  135  A    between atoms: _341  and  _342
REMARK  136  A    between atoms: _352  and  _354
REMARK  137  A    between atoms: _354  and  _355
REMARK  138  A    between atoms: _354  and  _357
REMARK  139  A    between atoms: _357  and  _358
REMARK  140  A    between atoms: _363  and  _365
REMARK  141  A    between atoms: _365  and  _366
REMARK  142  A    between atoms: _365  and  _368
REMARK  143  A    between atoms: _368  and  _369
REMARK  144  A    between atoms: _369  and  _370
REMARK  145  A    between atoms: _370  and  _371
REMARK                            x       y       z     vdW  Elec       q    Type
REMARK                         _______ _______ _______ _____ _____    ______ ____
ROOT
ATOM      1  O   HOH     1      15.836  -0.153   9.833  0.00  0.00    +0.000 OA
ENDROOT
TORSDOF 0
REMARK  Name = ../refined-set-2016/4jss/4jss_pocket.pdb
REMARK  145 active torsions:
REMARK  status: ('A' for Active; 'I' for Inactive)
REMARK    1  A    between atoms: _1  and  _3
REMARK    2  A    between atoms: _3  and  _4
REMARK    3  A    between atoms: _3  and  _6
REMARK    4  A    between atoms: _6  and  _7
REMARK    5  A    between atoms: _17  and  _19
REMARK    6  A    between atoms: _19  and  _20
REMARK    7  A    between atoms: _19  and  _22
REMARK    8  A    between atoms: _22  and  _23
REMARK    9  A    between atoms: _28  and  _29
REMARK   10  A    between atoms: _31  and  _33
REMARK   11  A    between atoms: _33  and  _34
REMARK   12  A    between atoms: _33  and  _36
REMARK   13  A    between atoms: _36  and  _37
REMARK   14  A    between atoms: _42  and  _44
REMARK   15  A    between atoms: _44  and  _45
REMARK   16  A    between atoms: _44  and  _47
REMARK   17  A    between atoms: _47  and  _48
REMARK   18  A    between atoms: _53  and  _55
REMARK   19  A    between atoms: _55  and  _56
REMARK   20  A    between atoms: _59  and  _61
REMARK   21  A    between atoms: _61  and  _62
REMARK   22  A    between atoms: _61  and  _64
REMARK   23  A    between atoms: _64  and  _65
REMARK   24  A    between atoms: _71  and  _73
REMARK   25  A    between atoms: _73  and  _74
REMARK   26  A    between atoms: _73  and  _76
REMARK   27  A    between atoms: _76  and  _77
REMARK   28  A    between atoms: _82  and  _84
REMARK   29  A    between atoms: _84  and  _85
REMARK   30  A    between atoms: _84  and  _87
REMARK   31  A    between atoms: _87  and  _88
REMARK   32  A    between atoms: _91  and  _93
REMARK   33  A    between atoms: _93  and  _94
REMARK   34  A    between atoms: _93  and  _96
REMARK   35  A    between atoms: _96  and  _97
REMARK   36  A    between atoms: _97  and  _98
REMARK   37  A    between atoms: _103  and  _105
REMARK   38  A    between atoms: _105  and  _106
REMARK   39  A    between atoms: _105  and  _108
REMARK   40  A    between atoms: _108  and  _109
REMARK   41  A    between atoms: _115  and  _117
REMARK   42  A    between atoms: _117  and  _118
REMARK   43  A    between atoms: _117  and  _120
REMARK   44  A    between atoms: _120  and  _121
REMARK   45  A    between atoms: _121  and  _123
REMARK   46  A    between atoms: _123  and  ZN_380
REMARK   47  A    between atoms: _124  and  _126
REMARK   48  A    between atoms: _126  and  _127
REMARK   49  A    between atoms: _126  and  _129
REMARK   50  A    between atoms: _129  and  _130
REMARK   51  A    between atoms: _136  and  _138
REMARK   52  A    between atoms: _138  and  _139
REMARK   53  A    between atoms: _138  and  _141
REMARK   54  A    between atoms: _141  and  _142
REMARK   55  A    between atoms: _147  and  _149
REMARK   56  A    between atoms: _149  and  _150
REMARK   57  A    between atoms: _149  and  _152
REMARK   58  A    between atoms: _152  and  _153
REMARK   59  A    between atoms: _153  and  _154
REMARK   60  A    between atoms: _157  and  _159
REMARK   61  A    between atoms: _159  and  _160
REMARK   62  A    between atoms: _159  and  _162
REMARK   63  A    between atoms: _162  and  _163
REMARK   64  A    between atoms: _163  and  _164
REMARK   65  A    between atoms: _167  and  _169
REMARK   66  A    between atoms: _169  and  _170
REMARK   67  A    between atoms: _169  and  _172
REMARK   68  A    between atoms: _172  and  _173
REMARK   69  A    between atoms: _176  and  _178
REMARK   70  A    between atoms: _178  and  _179
REMARK   71  A    between atoms: _178  and  _181
REMARK   72  A    between atoms: _181  and  _182
REMARK   73  A    between atoms: _183  and  ZN_380
REMARK   74  A    between atoms: _187  and  _189
REMARK   75  A    between atoms: _189  and  _190
REMARK   76  A    between atoms: _189  and  _192
REMARK   77  A    between atoms: _192  and  _193
REMARK   78  A    between atoms: _196  and  _198
REMARK   79  A    between atoms: _198  and  _199
REMARK   80  A    between atoms: _198  and  _201
REMARK   81  A    between atoms: _204  and  _206
REMARK   82  A    between atoms: _206  and  _207
REMARK   83  A    between atoms: _206  and  _209
REMARK   84  A    between atoms: _209  and  _210
REMARK   85  A    between atoms: _215  and  _217
REMARK   86  A    between atoms: _217  and  _218
REMARK   87  A    between atoms: _217  and  _220
REMARK   88  A    between atoms: _220  and  _221
REMARK   89  A    between atoms: _227  and  _229
REMARK   90  A    between atoms: _229  and  _230
REMARK   91  A    between atoms: _229  and  _232
REMARK   92  A    between atoms: _235  and  _237
REMARK   93  A    between atoms: _237  and  _238
REMARK   94  A    between atoms: _237  and  _240
REMARK   95  A    between atoms: _240  and  _241
REMARK   96  A    between atoms: _244  and  _246
REMARK   97  A    between atoms: _246  and  _247
REMARK   98  A    between atoms: _246  and  _249
REMARK   99  A    between atoms: _252  and  _254
REMARK  100  A    between atoms: _254  and  _255
REMARK  101  A    between atoms: _254  and  _257
REMARK  102  A    between atoms: _257  and  _258
REMARK  103  A    between atoms: _261  and  _263
REMARK  104  A    between atoms: _263  and  _264
REMARK  105  A    between atoms: _263  and  _266
REMARK  106  A    between atoms: _266  and  _267
REMARK  107  A    between atoms: _269  and  _271
REMARK  108  A    between atoms: _271  and  _272
REMARK  109  A    between atoms: _271  and  _274
REMARK  110  A    between atoms: _274  and  _275
REMARK  111  A    between atoms: _278  and  _280
REMARK  112  A    between atoms: _280  and  _281
REMARK  113  A    between atoms: _280  and  _283
REMARK  114  A    between atoms: _283  and  _284
REMARK  115  A    between atoms: _287  and  _289
REMARK  116  A    between atoms: _289  and  _290
REMARK  117  A    between atoms: _289  and  _292
REMARK  118  A    between atoms: _292  and  _293
REMARK  119  A    between atoms: _297  and  _298
REMARK  120  A    between atoms: _304  and  _305
REMARK  121  A    between atoms: _310  and  _312
REMARK  122  A    between atoms: _312  and  _313
REMARK  123  A    between atoms: _312  and  _315
REMARK  124  A    between atoms: _315  and  _316
REMARK  125  A    between atoms: _319  and  _321
REMARK  126  A    between atoms: _321  and  _322
REMARK  127  A    between atoms: _321  and  _324
REMARK  128  A    between atoms: _324  and  _325
REMARK  129  A    between atoms: _328  and  _330
REMARK  130  A    between atoms: _330  and  _331
REMARK  131  A    between atoms: _330  and  _333
REMARK  132  A    between atoms: _336  and  _338
REMARK  133  A    between atoms: _338  and  _339
REMARK  134  A    between atoms: _338  and  _341
REMARK  135  A    between atoms: _341  and  _342
REMARK  136  A    between atoms: _352  and  _354
REMARK  137  A    between atoms: _354  and  _355
REMARK  138  A    between atoms: _354  and  _357
REMARK  139  A    between atoms: _357  and  _358
REMARK  140  A    between atoms: _363  and  _365
REMARK  141  A    between atoms: _365  and  _366
REMARK  142  A    between atoms: _365  and  _368
REMARK  143  A    between atoms: _368  and  _369
REMARK  144  A    between atoms: _369  and  _370
REMARK  145  A    between atoms: _370  and  _371
REMARK                            x       y       z     vdW  Elec       q    Type
REMARK                         _______ _______ _______ _____ _____    ______ ____
ROOT
ATOM      1  O   HOH     1      19.282   2.099  11.327  0.00  0.00    +0.000 OA
ENDROOT
TORSDOF 0
