REMARK  Name = ../refined-set-2016/2fdp/2fdp_pocket.pdb
REMARK  241 active torsions:
REMARK  status: ('A' for Active; 'I' for Inactive)
REMARK    1  A    between atoms: _1  and  _3
REMARK    2  A    between atoms: _3  and  _4
REMARK    3  A    between atoms: _3  and  _6
REMARK    4  A    between atoms: _6  and  _7
REMARK    5  A    between atoms: _7  and  _8
REMARK    6  A    between atoms: _8  and  _9
REMARK    7  A    between atoms: _9  and  _10
REMARK    8  A    between atoms: _14  and  _16
REMARK    9  A    between atoms: _16  and  _17
REMARK   10  A    between atoms: _16  and  _19
REMARK   11  A    between atoms: _19  and  _20
REMARK   12  A    between atoms: _22  and  _24
REMARK   13  A    between atoms: _24  and  _25
REMARK   14  A    between atoms: _27  and  _29
REMARK   15  A    between atoms: _29  and  _30
REMARK   16  A    between atoms: _29  and  _32
REMARK   17  A    between atoms: _32  and  _33
REMARK   18  A    between atoms: _33  and  _34
REMARK   19  A    between atoms: _39  and  _41
REMARK   20  A    between atoms: _41  and  _42
REMARK   21  A    between atoms: _44  and  _46
REMARK   22  A    between atoms: _46  and  _47
REMARK   23  A    between atoms: _46  and  _49
REMARK   24  A    between atoms: _49  and  _50
REMARK   25  A    between atoms: _55  and  _56
REMARK   26  A    between atoms: _58  and  _60
REMARK   27  A    between atoms: _60  and  _61
REMARK   28  A    between atoms: _60  and  _63
REMARK   29  A    between atoms: _63  and  _64
REMARK   30  A    between atoms: _67  and  _69
REMARK   31  A    between atoms: _69  and  _70
REMARK   32  A    between atoms: _69  and  _72
REMARK   33  A    between atoms: _75  and  _77
REMARK   34  A    between atoms: _77  and  _78
REMARK   35  A    between atoms: _77  and  _80
REMARK   36  A    between atoms: _80  and  _81
REMARK   37  A    between atoms: _84  and  _86
REMARK   38  A    between atoms: _86  and  _87
REMARK   39  A    between atoms: _86  and  _89
REMARK   40  A    between atoms: _89  and  _90
REMARK   41  A    between atoms: _93  and  _95
REMARK   42  A    between atoms: _95  and  _96
REMARK   43  A    between atoms: _98  and  _100
REMARK   44  A    between atoms: _100  and  _101
REMARK   45  A    between atoms: _100  and  _103
REMARK   46  A    between atoms: _103  and  _104
REMARK   47  A    between atoms: _106  and  _108
REMARK   48  A    between atoms: _108  and  _109
REMARK   49  A    between atoms: _108  and  _111
REMARK   50  A    between atoms: _111  and  _112
REMARK   51  A    between atoms: _114  and  _116
REMARK   52  A    between atoms: _116  and  _117
REMARK   53  A    between atoms: _116  and  _119
REMARK   54  A    between atoms: _119  and  _120
REMARK   55  A    between atoms: _125  and  _127
REMARK   56  A    between atoms: _127  and  _128
REMARK   57  A    between atoms: _127  and  _130
REMARK   58  A    between atoms: _130  and  _131
REMARK   59  A    between atoms: _136  and  _137
REMARK   60  A    between atoms: _139  and  _141
REMARK   61  A    between atoms: _141  and  _142
REMARK   62  A    between atoms: _141  and  _144
REMARK   63  A    between atoms: _148  and  _149
REMARK   64  A    between atoms: _154  and  _156
REMARK   65  A    between atoms: _156  and  _157
REMARK   66  A    between atoms: _156  and  _159
REMARK   67  A    between atoms: _159  and  _160
REMARK   68  A    between atoms: _165  and  _166
REMARK   69  A    between atoms: _168  and  _170
REMARK   70  A    between atoms: _170  and  _171
REMARK   71  A    between atoms: _170  and  _173
REMARK   72  A    between atoms: _173  and  _174
REMARK   73  A    between atoms: _177  and  _179
REMARK   74  A    between atoms: _179  and  _180
REMARK   75  A    between atoms: _179  and  _182
REMARK   76  A    between atoms: _182  and  _183
REMARK   77  A    between atoms: _183  and  _184
REMARK   78  A    between atoms: _189  and  _191
REMARK   79  A    between atoms: _191  and  _192
REMARK   80  A    between atoms: _194  and  _196
REMARK   81  A    between atoms: _196  and  _197
REMARK   82  A    between atoms: _196  and  _199
REMARK   83  A    between atoms: _199  and  _200
REMARK   84  A    between atoms: _200  and  _201
REMARK   85  A    between atoms: _201  and  _202
REMARK   86  A    between atoms: _202  and  _203
REMARK   87  A    between atoms: _207  and  _209
REMARK   88  A    between atoms: _209  and  _210
REMARK   89  A    between atoms: _209  and  _212
REMARK   90  A    between atoms: _212  and  _213
REMARK   91  A    between atoms: _223  and  _225
REMARK   92  A    between atoms: _225  and  _226
REMARK   93  A    between atoms: _225  and  _228
REMARK   94  A    between atoms: _228  and  _229
REMARK   95  A    between atoms: _232  and  _234
REMARK   96  A    between atoms: _234  and  _235
REMARK   97  A    between atoms: _234  and  _237
REMARK   98  A    between atoms: _237  and  _238
REMARK   99  A    between atoms: _238  and  _239
REMARK  100  A    between atoms: _239  and  _240
REMARK  101  A    between atoms: _240  and  _241
REMARK  102  A    between atoms: _245  and  _247
REMARK  103  A    between atoms: _247  and  _248
REMARK  104  A    between atoms: _247  and  _250
REMARK  105  A    between atoms: _250  and  _251
REMARK  106  A    between atoms: _257  and  _259
REMARK  107  A    between atoms: _259  and  _260
REMARK  108  A    between atoms: _259  and  _262
REMARK  109  A    between atoms: _262  and  _263
REMARK  110  A    between atoms: _269  and  _271
REMARK  111  A    between atoms: _271  and  _272
REMARK  112  A    between atoms: _271  and  _274
REMARK  113  A    between atoms: _274  and  _275
REMARK  114  A    between atoms: _278  and  _280
REMARK  115  A    between atoms: _280  and  _281
REMARK  116  A    between atoms: _280  and  _283
REMARK  117  A    between atoms: _283  and  _284
REMARK  118  A    between atoms: _286  and  _288
REMARK  119  A    between atoms: _288  and  _289
REMARK  120  A    between atoms: _288  and  _291
REMARK  121  A    between atoms: _291  and  _292
REMARK  122  A    between atoms: _302  and  _304
REMARK  123  A    between atoms: _304  and  _305
REMARK  124  A    between atoms: _307  and  _309
REMARK  125  A    between atoms: _309  and  _310
REMARK  126  A    between atoms: _309  and  _312
REMARK  127  A    between atoms: _312  and  _313
REMARK  128  A    between atoms: _316  and  _318
REMARK  129  A    between atoms: _318  and  _319
REMARK  130  A    between atoms: _318  and  _321
REMARK  131  A    between atoms: _321  and  _322
REMARK  132  A    between atoms: _325  and  _327
REMARK  133  A    between atoms: _327  and  _328
REMARK  134  A    between atoms: _330  and  _332
REMARK  135  A    between atoms: _332  and  _333
REMARK  136  A    between atoms: _336  and  _338
REMARK  137  A    between atoms: _338  and  _339
REMARK  138  A    between atoms: _338  and  _341
REMARK  139  A    between atoms: _341  and  _342
REMARK  140  A    between atoms: _347  and  _348
REMARK  141  A    between atoms: _350  and  _352
REMARK  142  A    between atoms: _352  and  _353
REMARK  143  A    between atoms: _352  and  _355
REMARK  144  A    between atoms: _355  and  _356
REMARK  145  A    between atoms: _356  and  _357
REMARK  146  A    between atoms: _360  and  _362
REMARK  147  A    between atoms: _362  and  _363
REMARK  148  A    between atoms: _362  and  _365
REMARK  149  A    between atoms: _365  and  _366
REMARK  150  A    between atoms: _369  and  _371
REMARK  151  A    between atoms: _371  and  _372
REMARK  152  A    between atoms: _375  and  _377
REMARK  153  A    between atoms: _377  and  _378
REMARK  154  A    between atoms: _377  and  _380
REMARK  155  A    between atoms: _380  and  _381
REMARK  156  A    between atoms: _381  and  _382
REMARK  157  A    between atoms: _382  and  _383
REMARK  158  A    between atoms: _393  and  _394
REMARK  159  A    between atoms: _399  and  _401
REMARK  160  A    between atoms: _401  and  _402
REMARK  161  A    between atoms: _401  and  _404
REMARK  162  A    between atoms: _404  and  _405
REMARK  163  A    between atoms: _415  and  _417
REMARK  164  A    between atoms: _417  and  _418
REMARK  165  A    between atoms: _417  and  _420
REMARK  166  A    between atoms: _420  and  _421
REMARK  167  A    between atoms: _426  and  _427
REMARK  168  A    between atoms: _429  and  _431
REMARK  169  A    between atoms: _431  and  _432
REMARK  170  A    between atoms: _431  and  _434
REMARK  171  A    between atoms: _434  and  _435
REMARK  172  A    between atoms: _435  and  _436
REMARK  173  A    between atoms: _436  and  _437
REMARK  174  A    between atoms: _437  and  _438
REMARK  175  A    between atoms: _442  and  _444
REMARK  176  A    between atoms: _444  and  _445
REMARK  177  A    between atoms: _444  and  _447
REMARK  178  A    between atoms: _447  and  _448
REMARK  179  A    between atoms: _451  and  _453
REMARK  180  A    between atoms: _453  and  _454
REMARK  181  A    between atoms: _453  and  _456
REMARK  182  A    between atoms: _459  and  _461
REMARK  183  A    between atoms: _461  and  _462
REMARK  184  A    between atoms: _461  and  _464
REMARK  185  A    between atoms: _464  and  _465
REMARK  186  A    between atoms: _468  and  _470
REMARK  187  A    between atoms: _470  and  _471
REMARK  188  A    between atoms: _470  and  _473
REMARK  189  A    between atoms: _473  and  _474
REMARK  190  A    between atoms: _476  and  _478
REMARK  191  A    between atoms: _478  and  _479
REMARK  192  A    between atoms: _481  and  _483
REMARK  193  A    between atoms: _483  and  _484
REMARK  194  A    between atoms: _483  and  _486
REMARK  195  A    between atoms: _486  and  _487
REMARK  196  A    between atoms: _490  and  _492
REMARK  197  A    between atoms: _492  and  _493
REMARK  198  A    between atoms: _492  and  _495
REMARK  199  A    between atoms: _495  and  _496
REMARK  200  A    between atoms: _499  and  _501
REMARK  201  A    between atoms: _501  and  _502
REMARK  202  A    between atoms: _501  and  _504
REMARK  203  A    between atoms: _504  and  _505
REMARK  204  A    between atoms: _510  and  _512
REMARK  205  A    between atoms: _512  and  _513
REMARK  206  A    between atoms: _512  and  _515
REMARK  207  A    between atoms: _515  and  _516
REMARK  208  A    between atoms: _516  and  _517
REMARK  209  A    between atoms: _517  and  _518
REMARK  210  A    between atoms: _527  and  _529
REMARK  211  A    between atoms: _529  and  _530
REMARK  212  A    between atoms: _529  and  _532
REMARK  213  A    between atoms: _532  and  _533
REMARK  214  A    between atoms: _533  and  _534
REMARK  215  A    between atoms: _534  and  _535
REMARK  216  A    between atoms: _544  and  _546
REMARK  217  A    between atoms: _546  and  _547
REMARK  218  A    between atoms: _546  and  _549
REMARK  219  A    between atoms: _549  and  _550
REMARK  220  A    between atoms: _552  and  _554
REMARK  221  A    between atoms: _554  and  _555
REMARK  222  A    between atoms: _554  and  _557
REMARK  223  A    between atoms: _557  and  _558
REMARK  224  A    between atoms: _560  and  _562
REMARK  225  A    between atoms: _562  and  _563
REMARK  226  A    between atoms: _562  and  _565
REMARK  227  A    between atoms: _565  and  _566
REMARK  228  A    between atoms: _569  and  _571
REMARK  229  A    between atoms: _571  and  _572
REMARK  230  A    between atoms: _571  and  _574
REMARK  231  A    between atoms: _574  and  _575
REMARK  232  A    between atoms: _578  and  _580
REMARK  233  A    between atoms: _580  and  _581
REMARK  234  A    between atoms: _580  and  _583
REMARK  235  A    between atoms: _586  and  _588
REMARK  236  A    between atoms: _588  and  _589
REMARK  237  A    between atoms: _591  and  _593
REMARK  238  A    between atoms: _593  and  _594
REMARK  239  A    between atoms: _597  and  _599
REMARK  240  A    between atoms: _599  and  _600
REMARK  241  A    between atoms: _599  and  _602
REMARK                            x       y       z     vdW  Elec       q    Type
REMARK                         _______ _______ _______ _____ _____    ______ ____
ROOT
ATOM      1  CA  GLN A   4       0.523   1.849  45.582  0.00  0.00    +0.149 C 
ENDROOT
BRANCH   1   2
ATOM      2  C   GLN A   4       1.030   0.608  44.842  0.00  0.00    +0.241 C 
ATOM      3  O   GLN A   4       0.778  -0.522  45.264  0.00  0.00    -0.273 OA
ATOM      4  N   GLY A   5       1.747   0.830  43.742  0.00  0.00    -0.295 N 
ATOM      5  H   GLY A   5       1.834   1.804  43.389  0.00  0.00    +0.150 HD
BRANCH   4   6
ATOM      6  CA  GLY A   5       2.412  -0.239  43.017  0.00  0.00    +0.176 C 
BRANCH   6   7
ATOM      7  C   GLY A   5       1.675  -0.753  41.798  0.00  0.00    +0.243 C 
ATOM      8  O   GLY A   5       0.457  -0.618  41.693  0.00  0.00    -0.273 OA
ATOM      9  N   TYR A   6       2.430  -1.343  40.876  0.00  0.00    -0.298 N 
ATOM     10  H   TYR A   6       3.462  -1.348  41.006  0.00  0.00    +0.150 HD
BRANCH   9  11
ATOM     11  CA  TYR A   6       1.871  -1.984  39.689  0.00  0.00    +0.141 C 
BRANCH  11  12
ATOM     12  C   TYR A   6       1.755  -3.484  39.934  0.00  0.00    +0.227 C 
ATOM     13  O   TYR A   6       2.683  -4.106  40.458  0.00  0.00    -0.286 OA
ENDBRANCH  11  12
BRANCH  11  14
ATOM     14  CB  TYR A   6       2.754  -1.718  38.464  0.00  0.00    +0.054 C 
BRANCH  14  15
ATOM     15  CG  TYR A   6       2.760  -0.276  37.999  0.00  0.00    -0.020 A 
ATOM     16  CD2 TYR A   6       3.529   0.687  38.655  0.00  0.00    -0.001 A 
ATOM     17  CE2 TYR A   6       3.535   2.011  38.235  0.00  0.00    +0.036 A 
ATOM     18  CZ  TYR A   6       2.771   2.384  37.141  0.00  0.00    +0.134 A 
ATOM     19  CE1 TYR A   6       2.001   1.447  36.468  0.00  0.00    +0.036 A 
ATOM     20  CD1 TYR A   6       1.999   0.125  36.900  0.00  0.00    -0.001 A 
BRANCH  18  21
ATOM     21  OH  TYR A   6       2.781   3.696  36.726  0.00  0.00    -0.506 OA
ATOM     22  HH  TYR A   6       3.379   4.222  37.314  0.00  0.00    +0.292 HD
ENDBRANCH  18  21
ENDBRANCH  14  15
ENDBRANCH  11  14
ENDBRANCH   9  11
ENDBRANCH   6   7
ENDBRANCH   4   6
ENDBRANCH   1   2
BRANCH   1  25
ATOM     23  C   GLY A   3       1.551   4.066  45.482  0.00  0.00    +0.243 C 
ATOM     24  O   GLY A   3       1.907   4.018  46.660  0.00  0.00    -0.273 OA
ATOM     25  N   GLN A   4       0.887   3.081  44.882  0.00  0.00    -0.297 N 
ATOM     26  H   GLN A   4       0.618   3.191  43.883  0.00  0.00    +0.150 HD
BRANCH  23  27
ATOM     27  CA  GLY A   3       1.861   5.292  44.642  0.00  0.00    +0.176 C 
BRANCH  27  30
ATOM     28  C   SER A   2      -0.202   5.695  43.398  0.00  0.00    +0.243 C 
ATOM     29  O   SER A   2      -0.866   5.887  44.418  0.00  0.00    -0.273 OA
ATOM     30  N   GLY A   3       1.093   5.391  43.413  0.00  0.00    -0.295 N 
ATOM     31  H   GLY A   3       1.575   5.217  42.508  0.00  0.00    +0.150 HD
BRANCH  28  32
ATOM     32  CA  SER A   2      -0.849   5.762  42.015  0.00  0.00    +0.178 C 
BRANCH  32  35
ATOM     33  C   LYS A   1      -1.978   3.597  42.239  0.00  0.00    +0.238 C 
ATOM     34  O   LYS A   1      -0.981   3.052  42.718  0.00  0.00    -0.274 OA
ATOM     35  N   SER A   2      -2.020   4.887  41.909  0.00  0.00    -0.295 N 
ATOM     36  H   SER A   2      -2.916   5.287  41.564  0.00  0.00    +0.150 HD
BRANCH  33  37
ATOM     37  CA  LYS A   1      -3.243   2.792  41.985  0.00  0.00    +0.145 C 
BRANCH  37  38
ATOM     38  N   LYS A   1      -2.852   1.475  41.503  0.00  0.00    -0.238 NA
ATOM     39  H   LYS A   1      -2.312   0.853  42.138  0.00  0.00    +0.142 HD
ENDBRANCH  37  38
BRANCH  37  40
ATOM     40  CB  LYS A   1      -4.071   2.673  43.264  0.00  0.00    +0.026 C 
BRANCH  40  41
ATOM     41  CG  LYS A   1      -5.561   2.493  43.020  0.00  0.00    -0.000 C 
BRANCH  41  42
ATOM     42  CD  LYS A   1      -6.108   1.295  43.777  0.00  0.00    -0.024 C 
BRANCH  42  43
ATOM     43  CE  LYS A   1      -7.630   1.277  43.754  0.00  0.00    -0.086 C 
BRANCH  43  44
ATOM     44  NZ  LYS A   1      -8.214   1.769  45.035  0.00  0.00    +0.380 N 
ATOM     45  HZ1 LYS A   1      -7.893   1.162  45.816  0.00  0.00    -0.089 HD
ATOM     46  HZ2 LYS A   1      -7.903   2.747  45.203  0.00  0.00    -0.089 HD
ATOM     47  HZ3 LYS A   1      -9.252   1.740  44.975  0.00  0.00    -0.089 HD
ENDBRANCH  43  44
ENDBRANCH  42  43
ENDBRANCH  41  42
ENDBRANCH  40  41
ENDBRANCH  37  40
ENDBRANCH  33  37
ENDBRANCH  32  35
BRANCH  32  48
ATOM     48  CB  SER A   2      -1.206   7.209  41.651  0.00  0.00    +0.166 C 
BRANCH  48  49
ATOM     49  OG  SER A   2      -2.399   7.629  42.291  0.00  0.00    -0.380 OA
ATOM     50  H   SER A   2      -2.283   7.573  43.273  0.00  0.00    +0.211 HD
ENDBRANCH  48  49
ENDBRANCH  32  48
ENDBRANCH  28  32
ENDBRANCH  27  30
ENDBRANCH  23  27
ENDBRANCH   1  25
BRANCH   1  51
ATOM     51  CB  GLN A   4      -0.992   1.774  45.807  0.00  0.00    +0.039 C 
BRANCH  51  52
ATOM     52  CG  GLN A   4      -1.563   2.932  46.629  0.00  0.00    +0.087 C 
BRANCH  52  53
ATOM     53  CD  GLN A   4      -2.879   2.598  47.313  0.00  0.00    +0.219 C 
ATOM     54  NE2 GLN A   4      -3.162   3.288  48.413  0.00  0.00    -0.329 N 
ATOM     55 HE21 GLN A   4      -4.050   3.111  48.924  0.00  0.00    +0.145 HD
ATOM     56 HE22 GLN A   4      -2.495   4.005  48.763  0.00  0.00    +0.145 HD
ATOM     57  OE1 GLN A   4      -3.632   1.737  46.854  0.00  0.00    -0.275 OA
ENDBRANCH  52  53
ENDBRANCH  51  52
ENDBRANCH   1  51
TORSDOF 25
REMARK  Name = ../refined-set-2016/2fdp/2fdp_pocket.pdb
REMARK  241 active torsions:
REMARK  status: ('A' for Active; 'I' for Inactive)
REMARK    1  A    between atoms: _1  and  _3
REMARK    2  A    between atoms: _3  and  _4
REMARK    3  A    between atoms: _3  and  _6
REMARK    4  A    between atoms: _6  and  _7
REMARK    5  A    between atoms: _7  and  _8
REMARK    6  A    between atoms: _8  and  _9
REMARK    7  A    between atoms: _9  and  _10
REMARK    8  A    between atoms: _14  and  _16
REMARK    9  A    between atoms: _16  and  _17
REMARK   10  A    between atoms: _16  and  _19
REMARK   11  A    between atoms: _19  and  _20
REMARK   12  A    between atoms: _22  and  _24
REMARK   13  A    between atoms: _24  and  _25
REMARK   14  A    between atoms: _27  and  _29
REMARK   15  A    between atoms: _29  and  _30
REMARK   16  A    between atoms: _29  and  _32
REMARK   17  A    between atoms: _32  and  _33
REMARK   18  A    between atoms: _33  and  _34
REMARK   19  A    between atoms: _39  and  _41
REMARK   20  A    between atoms: _41  and  _42
REMARK   21  A    between atoms: _44  and  _46
REMARK   22  A    between atoms: _46  and  _47
REMARK   23  A    between atoms: _46  and  _49
REMARK   24  A    between atoms: _49  and  _50
REMARK   25  A    between atoms: _55  and  _56
REMARK   26  A    between atoms: _58  and  _60
REMARK   27  A    between atoms: _60  and  _61
REMARK   28  A    between atoms: _60  and  _63
REMARK   29  A    between atoms: _63  and  _64
REMARK   30  A    between atoms: _67  and  _69
REMARK   31  A    between atoms: _69  and  _70
REMARK   32  A    between atoms: _69  and  _72
REMARK   33  A    between atoms: _75  and  _77
REMARK   34  A    between atoms: _77  and  _78
REMARK   35  A    between atoms: _77  and  _80
REMARK   36  A    between atoms: _80  and  _81
REMARK   37  A    between atoms: _84  and  _86
REMARK   38  A    between atoms: _86  and  _87
REMARK   39  A    between atoms: _86  and  _89
REMARK   40  A    between atoms: _89  and  _90
REMARK   41  A    between atoms: _93  and  _95
REMARK   42  A    between atoms: _95  and  _96
REMARK   43  A    between atoms: _98  and  _100
REMARK   44  A    between atoms: _100  and  _101
REMARK   45  A    between atoms: _100  and  _103
REMARK   46  A    between atoms: _103  and  _104
REMARK   47  A    between atoms: _106  and  _108
REMARK   48  A    between atoms: _108  and  _109
REMARK   49  A    between atoms: _108  and  _111
REMARK   50  A    between atoms: _111  and  _112
REMARK   51  A    between atoms: _114  and  _116
REMARK   52  A    between atoms: _116  and  _117
REMARK   53  A    between atoms: _116  and  _119
REMARK   54  A    between atoms: _119  and  _120
REMARK   55  A    between atoms: _125  and  _127
REMARK   56  A    between atoms: _127  and  _128
REMARK   57  A    between atoms: _127  and  _130
REMARK   58  A    between atoms: _130  and  _131
REMARK   59  A    between atoms: _136  and  _137
REMARK   60  A    between atoms: _139  and  _141
REMARK   61  A    between atoms: _141  and  _142
REMARK   62  A    between atoms: _141  and  _144
REMARK   63  A    between atoms: _148  and  _149
REMARK   64  A    between atoms: _154  and  _156
REMARK   65  A    between atoms: _156  and  _157
REMARK   66  A    between atoms: _156  and  _159
REMARK   67  A    between atoms: _159  and  _160
REMARK   68  A    between atoms: _165  and  _166
REMARK   69  A    between atoms: _168  and  _170
REMARK   70  A    between atoms: _170  and  _171
REMARK   71  A    between atoms: _170  and  _173
REMARK   72  A    between atoms: _173  and  _174
REMARK   73  A    between atoms: _177  and  _179
REMARK   74  A    between atoms: _179  and  _180
REMARK   75  A    between atoms: _179  and  _182
REMARK   76  A    between atoms: _182  and  _183
REMARK   77  A    between atoms: _183  and  _184
REMARK   78  A    between atoms: _189  and  _191
REMARK   79  A    between atoms: _191  and  _192
REMARK   80  A    between atoms: _194  and  _196
REMARK   81  A    between atoms: _196  and  _197
REMARK   82  A    between atoms: _196  and  _199
REMARK   83  A    between atoms: _199  and  _200
REMARK   84  A    between atoms: _200  and  _201
REMARK   85  A    between atoms: _201  and  _202
REMARK   86  A    between atoms: _202  and  _203
REMARK   87  A    between atoms: _207  and  _209
REMARK   88  A    between atoms: _209  and  _210
REMARK   89  A    between atoms: _209  and  _212
REMARK   90  A    between atoms: _212  and  _213
REMARK   91  A    between atoms: _223  and  _225
REMARK   92  A    between atoms: _225  and  _226
REMARK   93  A    between atoms: _225  and  _228
REMARK   94  A    between atoms: _228  and  _229
REMARK   95  A    between atoms: _232  and  _234
REMARK   96  A    between atoms: _234  and  _235
REMARK   97  A    between atoms: _234  and  _237
REMARK   98  A    between atoms: _237  and  _238
REMARK   99  A    between atoms: _238  and  _239
REMARK  100  A    between atoms: _239  and  _240
REMARK  101  A    between atoms: _240  and  _241
REMARK  102  A    between atoms: _245  and  _247
REMARK  103  A    between atoms: _247  and  _248
REMARK  104  A    between atoms: _247  and  _250
REMARK  105  A    between atoms: _250  and  _251
REMARK  106  A    between atoms: _257  and  _259
REMARK  107  A    between atoms: _259  and  _260
REMARK  108  A    between atoms: _259  and  _262
REMARK  109  A    between atoms: _262  and  _263
REMARK  110  A    between atoms: _269  and  _271
REMARK  111  A    between atoms: _271  and  _272
REMARK  112  A    between atoms: _271  and  _274
REMARK  113  A    between atoms: _274  and  _275
REMARK  114  A    between atoms: _278  and  _280
REMARK  115  A    between atoms: _280  and  _281
REMARK  116  A    between atoms: _280  and  _283
REMARK  117  A    between atoms: _283  and  _284
REMARK  118  A    between atoms: _286  and  _288
REMARK  119  A    between atoms: _288  and  _289
REMARK  120  A    between atoms: _288  and  _291
REMARK  121  A    between atoms: _291  and  _292
REMARK  122  A    between atoms: _302  and  _304
REMARK  123  A    between atoms: _304  and  _305
REMARK  124  A    between atoms: _307  and  _309
REMARK  125  A    between atoms: _309  and  _310
REMARK  126  A    between atoms: _309  and  _312
REMARK  127  A    between atoms: _312  and  _313
REMARK  128  A    between atoms: _316  and  _318
REMARK  129  A    between atoms: _318  and  _319
REMARK  130  A    between atoms: _318  and  _321
REMARK  131  A    between atoms: _321  and  _322
REMARK  132  A    between atoms: _325  and  _327
REMARK  133  A    between atoms: _327  and  _328
REMARK  134  A    between atoms: _330  and  _332
REMARK  135  A    between atoms: _332  and  _333
REMARK  136  A    between atoms: _336  and  _338
REMARK  137  A    between atoms: _338  and  _339
REMARK  138  A    between atoms: _338  and  _341
REMARK  139  A    between atoms: _341  and  _342
REMARK  140  A    between atoms: _347  and  _348
REMARK  141  A    between atoms: _350  and  _352
REMARK  142  A    between atoms: _352  and  _353
REMARK  143  A    between atoms: _352  and  _355
REMARK  144  A    between atoms: _355  and  _356
REMARK  145  A    between atoms: _356  and  _357
REMARK  146  A    between atoms: _360  and  _362
REMARK  147  A    between atoms: _362  and  _363
REMARK  148  A    between atoms: _362  and  _365
REMARK  149  A    between atoms: _365  and  _366
REMARK  150  A    between atoms: _369  and  _371
REMARK  151  A    between atoms: _371  and  _372
REMARK  152  A    between atoms: _375  and  _377
REMARK  153  A    between atoms: _377  and  _378
REMARK  154  A    between atoms: _377  and  _380
REMARK  155  A    between atoms: _380  and  _381
REMARK  156  A    between atoms: _381  and  _382
REMARK  157  A    between atoms: _382  and  _383
REMARK  158  A    between atoms: _393  and  _394
REMARK  159  A    between atoms: _399  and  _401
REMARK  160  A    between atoms: _401  and  _402
REMARK  161  A    between atoms: _401  and  _404
REMARK  162  A    between atoms: _404  and  _405
REMARK  163  A    between atoms: _415  and  _417
REMARK  164  A    between atoms: _417  and  _418
REMARK  165  A    between atoms: _417  and  _420
REMARK  166  A    between atoms: _420  and  _421
REMARK  167  A    between atoms: _426  and  _427
REMARK  168  A    between atoms: _429  and  _431
REMARK  169  A    between atoms: _431  and  _432
REMARK  170  A    between atoms: _431  and  _434
REMARK  171  A    between atoms: _434  and  _435
REMARK  172  A    between atoms: _435  and  _436
REMARK  173  A    between atoms: _436  and  _437
REMARK  174  A    between atoms: _437  and  _438
REMARK  175  A    between atoms: _442  and  _444
REMARK  176  A    between atoms: _444  and  _445
REMARK  177  A    between atoms: _444  and  _447
REMARK  178  A    between atoms: _447  and  _448
REMARK  179  A    between atoms: _451  and  _453
REMARK  180  A    between atoms: _453  and  _454
REMARK  181  A    between atoms: _453  and  _456
REMARK  182  A    between atoms: _459  and  _461
REMARK  183  A    between atoms: _461  and  _462
REMARK  184  A    between atoms: _461  and  _464
REMARK  185  A    between atoms: _464  and  _465
REMARK  186  A    between atoms: _468  and  _470
REMARK  187  A    between atoms: _470  and  _471
REMARK  188  A    between atoms: _470  and  _473
REMARK  189  A    between atoms: _473  and  _474
REMARK  190  A    between atoms: _476  and  _478
REMARK  191  A    between atoms: _478  and  _479
REMARK  192  A    between atoms: _481  and  _483
REMARK  193  A    between atoms: _483  and  _484
REMARK  194  A    between atoms: _483  and  _486
REMARK  195  A    between atoms: _486  and  _487
REMARK  196  A    between atoms: _490  and  _492
REMARK  197  A    between atoms: _492  and  _493
REMARK  198  A    between atoms: _492  and  _495
REMARK  199  A    between atoms: _495  and  _496
REMARK  200  A    between atoms: _499  and  _501
REMARK  201  A    between atoms: _501  and  _502
REMARK  202  A    between atoms: _501  and  _504
REMARK  203  A    between atoms: _504  and  _505
REMARK  204  A    between atoms: _510  and  _512
REMARK  205  A    between atoms: _512  and  _513
REMARK  206  A    between atoms: _512  and  _515
REMARK  207  A    between atoms: _515  and  _516
REMARK  208  A    between atoms: _516  and  _517
REMARK  209  A    between atoms: _517  and  _518
REMARK  210  A    between atoms: _527  and  _529
REMARK  211  A    between atoms: _529  and  _530
REMARK  212  A    between atoms: _529  and  _532
REMARK  213  A    between atoms: _532  and  _533
REMARK  214  A    between atoms: _533  and  _534
REMARK  215  A    between atoms: _534  and  _535
REMARK  216  A    between atoms: _544  and  _546
REMARK  217  A    between atoms: _546  and  _547
REMARK  218  A    between atoms: _546  and  _549
REMARK  219  A    between atoms: _549  and  _550
REMARK  220  A    between atoms: _552  and  _554
REMARK  221  A    between atoms: _554  and  _555
REMARK  222  A    between atoms: _554  and  _557
REMARK  223  A    between atoms: _557  and  _558
REMARK  224  A    between atoms: _560  and  _562
REMARK  225  A    between atoms: _562  and  _563
REMARK  226  A    between atoms: _562  and  _565
REMARK  227  A    between atoms: _565  and  _566
REMARK  228  A    between atoms: _569  and  _571
REMARK  229  A    between atoms: _571  and  _572
REMARK  230  A    between atoms: _571  and  _574
REMARK  231  A    between atoms: _574  and  _575
REMARK  232  A    between atoms: _578  and  _580
REMARK  233  A    between atoms: _580  and  _581
REMARK  234  A    between atoms: _580  and  _583
REMARK  235  A    between atoms: _586  and  _588
REMARK  236  A    between atoms: _588  and  _589
REMARK  237  A    between atoms: _591  and  _593
REMARK  238  A    between atoms: _593  and  _594
REMARK  239  A    between atoms: _597  and  _599
REMARK  240  A    between atoms: _599  and  _600
REMARK  241  A    between atoms: _599  and  _602
REMARK                            x       y       z     vdW  Elec       q    Type
REMARK                         _______ _______ _______ _____ _____    ______ ____
ROOT
ATOM      1  C   THR A   4      13.424  -5.542  41.368  0.00  0.00    +0.243 C 
ATOM      2  N   GLY A   5      12.992  -5.117  42.555  0.00  0.00    -0.295 N 
ATOM      3  H   GLY A   5      11.969  -5.002  42.701  0.00  0.00    +0.150 HD
ATOM      4  O   THR A   4      14.616  -5.733  41.109  0.00  0.00    -0.273 OA
ENDROOT
BRANCH   2   5
ATOM      5  CA  GLY A   5      13.891  -4.808  43.655  0.00  0.00    +0.176 C 
BRANCH   5   6
ATOM      6  C   GLY A   5      14.082  -5.925  44.669  0.00  0.00    +0.243 C 
ATOM      7  O   GLY A   5      14.831  -5.762  45.632  0.00  0.00    -0.273 OA
ATOM      8  N   SER A   6      13.402  -7.051  44.459  0.00  0.00    -0.295 N 
ATOM      9  H   SER A   6      12.739  -7.092  43.659  0.00  0.00    +0.150 HD
BRANCH   8  10
ATOM     10  CA  SER A   6      13.551  -8.234  45.310  0.00  0.00    +0.178 C 
BRANCH  10  11
ATOM     11  C   SER A   6      13.460  -9.508  44.469  0.00  0.00    +0.243 C 
ATOM     12  N   SER A   7      13.619 -10.667  45.106  0.00  0.00    -0.295 N 
ATOM     13  H   SER A   7      13.689 -10.671  46.144  0.00  0.00    +0.150 HD
ATOM     14  O   SER A   6      13.242  -9.436  43.259  0.00  0.00    -0.273 OA
BRANCH  12  15
ATOM     15  CA  SER A   7      13.698 -11.936  44.379  0.00  0.00    +0.178 C 
BRANCH  15  16
ATOM     16  C   SER A   7      12.773 -13.036  44.898  0.00  0.00    +0.243 C 
ATOM     17  N   ASN A   8      11.864 -12.683  45.801  0.00  0.00    -0.298 N 
ATOM     18  H   ASN A   8      11.812 -11.693  46.114  0.00  0.00    +0.150 HD
ATOM     19  O   SER A   7      12.879 -14.189  44.479  0.00  0.00    -0.273 OA
BRANCH  17  20
ATOM     20  CA  ASN A   8      10.939 -13.661  46.360  0.00  0.00    +0.146 C 
BRANCH  20  21
ATOM     21  C   ASN A   8       9.537 -13.563  45.771  0.00  0.00    +0.227 C 
ATOM     22  O   ASN A   8       8.979 -12.468  45.640  0.00  0.00    -0.286 OA
ENDBRANCH  20  21
BRANCH  20  23
ATOM     23  CB  ASN A   8      10.878 -13.529  47.881  0.00  0.00    +0.112 C 
BRANCH  23  24
ATOM     24  CG  ASN A   8      11.905 -14.387  48.578  0.00  0.00    +0.222 C 
ATOM     25  ND2 ASN A   8      11.529 -15.624  48.894  0.00  0.00    -0.329 N 
ATOM     26 HD21 ASN A   8      12.194 -16.263  49.375  0.00  0.00    +0.145 HD
ATOM     27 HD22 ASN A   8      10.570 -15.952  48.660  0.00  0.00    +0.145 HD
ATOM     28  OD1 ASN A   8      13.026 -13.948  48.831  0.00  0.00    -0.275 OA
ENDBRANCH  23  24
ENDBRANCH  20  23
ENDBRANCH  17  20
ENDBRANCH  15  16
BRANCH  15  29
ATOM     29  CB  SER A   7      15.138 -12.441  44.368  0.00  0.00    +0.166 C 
BRANCH  29  30
ATOM     30  OG  SER A   7      16.024 -11.408  43.985  0.00  0.00    -0.380 OA
ATOM     31  H   SER A   7      16.952 -11.754  43.984  0.00  0.00    +0.211 HD
ENDBRANCH  29  30
ENDBRANCH  15  29
ENDBRANCH  12  15
ENDBRANCH  10  11
BRANCH  10  32
ATOM     32  CB  SER A   6      12.507  -8.239  46.435  0.00  0.00    +0.166 C 
BRANCH  32  33
ATOM     33  OG  SER A   6      11.186  -8.315  45.924  0.00  0.00    -0.380 OA
ATOM     34  H   SER A   6      11.013  -7.534  45.341  0.00  0.00    +0.211 HD
ENDBRANCH  32  33
ENDBRANCH  10  32
ENDBRANCH   8  10
ENDBRANCH   5   6
ENDBRANCH   2   5
BRANCH   1  35
ATOM     35  CA  THR A   4      12.350  -5.800  40.310  0.00  0.00    +0.176 C 
BRANCH  35  38
ATOM     36  C   ASP A   3      10.311  -6.364  41.546  0.00  0.00    +0.241 C 
ATOM     37  O   ASP A   3      10.714  -7.498  41.823  0.00  0.00    -0.273 OA
ATOM     38  N   THR A   4      11.010  -5.498  40.815  0.00  0.00    -0.295 N 
ATOM     39  H   THR A   4      10.588  -4.573  40.595  0.00  0.00    +0.150 HD
BRANCH  36  40
ATOM     40  CA  ASP A   3       8.956  -5.868  42.047  0.00  0.00    +0.160 C 
BRANCH  40  42
ATOM     41  C   VAL A   2       6.901  -5.739  40.734  0.00  0.00    +0.241 C 
ATOM     42  N   ASP A   3       7.849  -6.474  41.311  0.00  0.00    -0.297 N 
ATOM     43  H   ASP A   3       7.800  -7.510  41.236  0.00  0.00    +0.150 HD
ATOM     44  O   VAL A   2       6.910  -4.503  40.734  0.00  0.00    -0.273 OA
BRANCH  41  45
ATOM     45  CA  VAL A   2       5.767  -6.519  40.064  0.00  0.00    +0.148 C 
BRANCH  45  48
ATOM     46  C   LEU A   1       4.213  -7.117  41.861  0.00  0.00    +0.238 C 
ATOM     47  O   LEU A   1       4.912  -8.050  42.259  0.00  0.00    -0.274 OA
ATOM     48  N   VAL A   2       4.537  -6.346  40.828  0.00  0.00    -0.297 N 
ATOM     49  H   VAL A   2       3.884  -5.585  40.552  0.00  0.00    +0.150 HD
BRANCH  46  50
ATOM     50  CA  LEU A   1       2.897  -6.774  42.552  0.00  0.00    +0.145 C 
BRANCH  50  51
ATOM     51  N   LEU A   1       2.078  -7.962  42.777  0.00  0.00    -0.238 NA
ATOM     52  H   LEU A   1       1.926  -8.284  43.754  0.00  0.00    +0.142 HD
ENDBRANCH  50  51
BRANCH  50  53
ATOM     53  CB  LEU A   1       3.162  -6.036  43.872  0.00  0.00    +0.026 C 
BRANCH  53  54
ATOM     54  CG  LEU A   1       3.910  -4.697  43.781  0.00  0.00    +0.002 C 
ATOM     55  CD2 LEU A   1       3.169  -3.609  44.523  0.00  0.00    +0.000 C 
ATOM     56  CD1 LEU A   1       5.334  -4.815  44.303  0.00  0.00    +0.000 C 
ENDBRANCH  53  54
ENDBRANCH  50  53
ENDBRANCH  46  50
ENDBRANCH  45  48
BRANCH  45  57
ATOM     57  CB  VAL A   2       5.568  -6.081  38.585  0.00  0.00    +0.027 C 
ATOM     58  CG2 VAL A   2       6.899  -5.897  37.869  0.00  0.00    +0.002 C 
ATOM     59  CG1 VAL A   2       4.706  -7.091  37.846  0.00  0.00    +0.002 C 
ENDBRANCH  45  57
ENDBRANCH  41  45
ENDBRANCH  40  42
BRANCH  40  60
ATOM     60  CB  ASP A   3       8.802  -6.118  43.556  0.00  0.00    +0.143 C 
BRANCH  60  61
ATOM     61  CG  ASP A   3       9.927  -5.499  44.381  0.00  0.00    +0.367 C 
ATOM     62  OD2 ASP A   3      10.315  -5.978  45.466  0.00  0.00    -0.246 OA
ATOM     63  OD1 ASP A   3      10.491  -4.465  43.966  0.00  0.00    -0.246 OA
ENDBRANCH  60  61
ENDBRANCH  40  60
ENDBRANCH  36  40
ENDBRANCH  35  38
BRANCH  35  64
ATOM     64  CB  THR A   4      12.658  -4.989  39.024  0.00  0.00    +0.137 C 
ATOM     65  CG2 THR A   4      11.685  -5.351  37.903  0.00  0.00    +0.034 C 
BRANCH  64  66
ATOM     66  OG1 THR A   4      12.408  -3.596  39.253  0.00  0.00    -0.382 OA
ATOM     67  HG1 THR A   4      11.458  -3.469  39.500  0.00  0.00    +0.210 HD
ENDBRANCH  64  66
ENDBRANCH  35  64
ENDBRANCH   1  35
TORSDOF 29
REMARK  Name = ../refined-set-2016/2fdp/2fdp_pocket.pdb
REMARK  241 active torsions:
REMARK  status: ('A' for Active; 'I' for Inactive)
REMARK    1  A    between atoms: _1  and  _3
REMARK    2  A    between atoms: _3  and  _4
REMARK    3  A    between atoms: _3  and  _6
REMARK    4  A    between atoms: _6  and  _7
REMARK    5  A    between atoms: _7  and  _8
REMARK    6  A    between atoms: _8  and  _9
REMARK    7  A    between atoms: _9  and  _10
REMARK    8  A    between atoms: _14  and  _16
REMARK    9  A    between atoms: _16  and  _17
REMARK   10  A    between atoms: _16  and  _19
REMARK   11  A    between atoms: _19  and  _20
REMARK   12  A    between atoms: _22  and  _24
REMARK   13  A    between atoms: _24  and  _25
REMARK   14  A    between atoms: _27  and  _29
REMARK   15  A    between atoms: _29  and  _30
REMARK   16  A    between atoms: _29  and  _32
REMARK   17  A    between atoms: _32  and  _33
REMARK   18  A    between atoms: _33  and  _34
REMARK   19  A    between atoms: _39  and  _41
REMARK   20  A    between atoms: _41  and  _42
REMARK   21  A    between atoms: _44  and  _46
REMARK   22  A    between atoms: _46  and  _47
REMARK   23  A    between atoms: _46  and  _49
REMARK   24  A    between atoms: _49  and  _50
REMARK   25  A    between atoms: _55  and  _56
REMARK   26  A    between atoms: _58  and  _60
REMARK   27  A    between atoms: _60  and  _61
REMARK   28  A    between atoms: _60  and  _63
REMARK   29  A    between atoms: _63  and  _64
REMARK   30  A    between atoms: _67  and  _69
REMARK   31  A    between atoms: _69  and  _70
REMARK   32  A    between atoms: _69  and  _72
REMARK   33  A    between atoms: _75  and  _77
REMARK   34  A    between atoms: _77  and  _78
REMARK   35  A    between atoms: _77  and  _80
REMARK   36  A    between atoms: _80  and  _81
REMARK   37  A    between atoms: _84  and  _86
REMARK   38  A    between atoms: _86  and  _87
REMARK   39  A    between atoms: _86  and  _89
REMARK   40  A    between atoms: _89  and  _90
REMARK   41  A    between atoms: _93  and  _95
REMARK   42  A    between atoms: _95  and  _96
REMARK   43  A    between atoms: _98  and  _100
REMARK   44  A    between atoms: _100  and  _101
REMARK   45  A    between atoms: _100  and  _103
REMARK   46  A    between atoms: _103  and  _104
REMARK   47  A    between atoms: _106  and  _108
REMARK   48  A    between atoms: _108  and  _109
REMARK   49  A    between atoms: _108  and  _111
REMARK   50  A    between atoms: _111  and  _112
REMARK   51  A    between atoms: _114  and  _116
REMARK   52  A    between atoms: _116  and  _117
REMARK   53  A    between atoms: _116  and  _119
REMARK   54  A    between atoms: _119  and  _120
REMARK   55  A    between atoms: _125  and  _127
REMARK   56  A    between atoms: _127  and  _128
REMARK   57  A    between atoms: _127  and  _130
REMARK   58  A    between atoms: _130  and  _131
REMARK   59  A    between atoms: _136  and  _137
REMARK   60  A    between atoms: _139  and  _141
REMARK   61  A    between atoms: _141  and  _142
REMARK   62  A    between atoms: _141  and  _144
REMARK   63  A    between atoms: _148  and  _149
REMARK   64  A    between atoms: _154  and  _156
REMARK   65  A    between atoms: _156  and  _157
REMARK   66  A    between atoms: _156  and  _159
REMARK   67  A    between atoms: _159  and  _160
REMARK   68  A    between atoms: _165  and  _166
REMARK   69  A    between atoms: _168  and  _170
REMARK   70  A    between atoms: _170  and  _171
REMARK   71  A    between atoms: _170  and  _173
REMARK   72  A    between atoms: _173  and  _174
REMARK   73  A    between atoms: _177  and  _179
REMARK   74  A    between atoms: _179  and  _180
REMARK   75  A    between atoms: _179  and  _182
REMARK   76  A    between atoms: _182  and  _183
REMARK   77  A    between atoms: _183  and  _184
REMARK   78  A    between atoms: _189  and  _191
REMARK   79  A    between atoms: _191  and  _192
REMARK   80  A    between atoms: _194  and  _196
REMARK   81  A    between atoms: _196  and  _197
REMARK   82  A    between atoms: _196  and  _199
REMARK   83  A    between atoms: _199  and  _200
REMARK   84  A    between atoms: _200  and  _201
REMARK   85  A    between atoms: _201  and  _202
REMARK   86  A    between atoms: _202  and  _203
REMARK   87  A    between atoms: _207  and  _209
REMARK   88  A    between atoms: _209  and  _210
REMARK   89  A    between atoms: _209  and  _212
REMARK   90  A    between atoms: _212  and  _213
REMARK   91  A    between atoms: _223  and  _225
REMARK   92  A    between atoms: _225  and  _226
REMARK   93  A    between atoms: _225  and  _228
REMARK   94  A    between atoms: _228  and  _229
REMARK   95  A    between atoms: _232  and  _234
REMARK   96  A    between atoms: _234  and  _235
REMARK   97  A    between atoms: _234  and  _237
REMARK   98  A    between atoms: _237  and  _238
REMARK   99  A    between atoms: _238  and  _239
REMARK  100  A    between atoms: _239  and  _240
REMARK  101  A    between atoms: _240  and  _241
REMARK  102  A    between atoms: _245  and  _247
REMARK  103  A    between atoms: _247  and  _248
REMARK  104  A    between atoms: _247  and  _250
REMARK  105  A    between atoms: _250  and  _251
REMARK  106  A    between atoms: _257  and  _259
REMARK  107  A    between atoms: _259  and  _260
REMARK  108  A    between atoms: _259  and  _262
REMARK  109  A    between atoms: _262  and  _263
REMARK  110  A    between atoms: _269  and  _271
REMARK  111  A    between atoms: _271  and  _272
REMARK  112  A    between atoms: _271  and  _274
REMARK  113  A    between atoms: _274  and  _275
REMARK  114  A    between atoms: _278  and  _280
REMARK  115  A    between atoms: _280  and  _281
REMARK  116  A    between atoms: _280  and  _283
REMARK  117  A    between atoms: _283  and  _284
REMARK  118  A    between atoms: _286  and  _288
REMARK  119  A    between atoms: _288  and  _289
REMARK  120  A    between atoms: _288  and  _291
REMARK  121  A    between atoms: _291  and  _292
REMARK  122  A    between atoms: _302  and  _304
REMARK  123  A    between atoms: _304  and  _305
REMARK  124  A    between atoms: _307  and  _309
REMARK  125  A    between atoms: _309  and  _310
REMARK  126  A    between atoms: _309  and  _312
REMARK  127  A    between atoms: _312  and  _313
REMARK  128  A    between atoms: _316  and  _318
REMARK  129  A    between atoms: _318  and  _319
REMARK  130  A    between atoms: _318  and  _321
REMARK  131  A    between atoms: _321  and  _322
REMARK  132  A    between atoms: _325  and  _327
REMARK  133  A    between atoms: _327  and  _328
REMARK  134  A    between atoms: _330  and  _332
REMARK  135  A    between atoms: _332  and  _333
REMARK  136  A    between atoms: _336  and  _338
REMARK  137  A    between atoms: _338  and  _339
REMARK  138  A    between atoms: _338  and  _341
REMARK  139  A    between atoms: _341  and  _342
REMARK  140  A    between atoms: _347  and  _348
REMARK  141  A    between atoms: _350  and  _352
REMARK  142  A    between atoms: _352  and  _353
REMARK  143  A    between atoms: _352  and  _355
REMARK  144  A    between atoms: _355  and  _356
REMARK  145  A    between atoms: _356  and  _357
REMARK  146  A    between atoms: _360  and  _362
REMARK  147  A    between atoms: _362  and  _363
REMARK  148  A    between atoms: _362  and  _365
REMARK  149  A    between atoms: _365  and  _366
REMARK  150  A    between atoms: _369  and  _371
REMARK  151  A    between atoms: _371  and  _372
REMARK  152  A    between atoms: _375  and  _377
REMARK  153  A    between atoms: _377  and  _378
REMARK  154  A    between atoms: _377  and  _380
REMARK  155  A    between atoms: _380  and  _381
REMARK  156  A    between atoms: _381  and  _382
REMARK  157  A    between atoms: _382  and  _383
REMARK  158  A    between atoms: _393  and  _394
REMARK  159  A    between atoms: _399  and  _401
REMARK  160  A    between atoms: _401  and  _402
REMARK  161  A    between atoms: _401  and  _404
REMARK  162  A    between atoms: _404  and  _405
REMARK  163  A    between atoms: _415  and  _417
REMARK  164  A    between atoms: _417  and  _418
REMARK  165  A    between atoms: _417  and  _420
REMARK  166  A    between atoms: _420  and  _421
REMARK  167  A    between atoms: _426  and  _427
REMARK  168  A    between atoms: _429  and  _431
REMARK  169  A    between atoms: _431  and  _432
REMARK  170  A    between atoms: _431  and  _434
REMARK  171  A    between atoms: _434  and  _435
REMARK  172  A    between atoms: _435  and  _436
REMARK  173  A    between atoms: _436  and  _437
REMARK  174  A    between atoms: _437  and  _438
REMARK  175  A    between atoms: _442  and  _444
REMARK  176  A    between atoms: _444  and  _445
REMARK  177  A    between atoms: _444  and  _447
REMARK  178  A    between atoms: _447  and  _448
REMARK  179  A    between atoms: _451  and  _453
REMARK  180  A    between atoms: _453  and  _454
REMARK  181  A    between atoms: _453  and  _456
REMARK  182  A    between atoms: _459  and  _461
REMARK  183  A    between atoms: _461  and  _462
REMARK  184  A    between atoms: _461  and  _464
REMARK  185  A    between atoms: _464  and  _465
REMARK  186  A    between atoms: _468  and  _470
REMARK  187  A    between atoms: _470  and  _471
REMARK  188  A    between atoms: _470  and  _473
REMARK  189  A    between atoms: _473  and  _474
REMARK  190  A    between atoms: _476  and  _478
REMARK  191  A    between atoms: _478  and  _479
REMARK  192  A    between atoms: _481  and  _483
REMARK  193  A    between atoms: _483  and  _484
REMARK  194  A    between atoms: _483  and  _486
REMARK  195  A    between atoms: _486  and  _487
REMARK  196  A    between atoms: _490  and  _492
REMARK  197  A    between atoms: _492  and  _493
REMARK  198  A    between atoms: _492  and  _495
REMARK  199  A    between atoms: _495  and  _496
REMARK  200  A    between atoms: _499  and  _501
REMARK  201  A    between atoms: _501  and  _502
REMARK  202  A    between atoms: _501  and  _504
REMARK  203  A    between atoms: _504  and  _505
REMARK  204  A    between atoms: _510  and  _512
REMARK  205  A    between atoms: _512  and  _513
REMARK  206  A    between atoms: _512  and  _515
REMARK  207  A    between atoms: _515  and  _516
REMARK  208  A    between atoms: _516  and  _517
REMARK  209  A    between atoms: _517  and  _518
REMARK  210  A    between atoms: _527  and  _529
REMARK  211  A    between atoms: _529  and  _530
REMARK  212  A    between atoms: _529  and  _532
REMARK  213  A    between atoms: _532  and  _533
REMARK  214  A    between atoms: _533  and  _534
REMARK  215  A    between atoms: _534  and  _535
REMARK  216  A    between atoms: _544  and  _546
REMARK  217  A    between atoms: _546  and  _547
REMARK  218  A    between atoms: _546  and  _549
REMARK  219  A    between atoms: _549  and  _550
REMARK  220  A    between atoms: _552  and  _554
REMARK  221  A    between atoms: _554  and  _555
REMARK  222  A    between atoms: _554  and  _557
REMARK  223  A    between atoms: _557  and  _558
REMARK  224  A    between atoms: _560  and  _562
REMARK  225  A    between atoms: _562  and  _563
REMARK  226  A    between atoms: _562  and  _565
REMARK  227  A    between atoms: _565  and  _566
REMARK  228  A    between atoms: _569  and  _571
REMARK  229  A    between atoms: _571  and  _572
REMARK  230  A    between atoms: _571  and  _574
REMARK  231  A    between atoms: _574  and  _575
REMARK  232  A    between atoms: _578  and  _580
REMARK  233  A    between atoms: _580  and  _581
REMARK  234  A    between atoms: _580  and  _583
REMARK  235  A    between atoms: _586  and  _588
REMARK  236  A    between atoms: _588  and  _589
REMARK  237  A    between atoms: _591  and  _593
REMARK  238  A    between atoms: _593  and  _594
REMARK  239  A    between atoms: _597  and  _599
REMARK  240  A    between atoms: _599  and  _600
REMARK  241  A    between atoms: _599  and  _602
REMARK                            x       y       z     vdW  Elec       q    Type
REMARK                         _______ _______ _______ _____ _____    ______ ____
ROOT
ATOM      1  CA  THR A   5      13.157  -1.047  53.024  0.00  0.00    +0.176 C 
ENDROOT
BRANCH   1   4
ATOM      2  C   TYR A   4      12.619  -3.412  53.321  0.00  0.00    +0.241 C 
ATOM      3  O   TYR A   4      12.821  -3.366  54.538  0.00  0.00    -0.273 OA
ATOM      4  N   THR A   5      12.816  -2.374  52.513  0.00  0.00    -0.295 N 
ATOM      5  H   THR A   5      12.725  -2.510  51.486  0.00  0.00    +0.150 HD
BRANCH   2   6
ATOM      6  CA  TYR A   4      12.138  -4.706  52.668  0.00  0.00    +0.153 C 
BRANCH   6   8
ATOM      7  C   PRO A   3      12.880  -6.520  54.101  0.00  0.00    +0.241 C 
ATOM      8  N   TYR A   4      11.902  -5.719  53.693  0.00  0.00    -0.297 N 
ATOM      9  H   TYR A   4      10.954  -5.815  54.110  0.00  0.00    +0.150 HD
ATOM     10  O   PRO A   3      13.993  -6.543  53.569  0.00  0.00    -0.273 OA
BRANCH   7  13
ATOM     11  C   VAL A   2      11.594  -9.555  54.518  0.00  0.00    +0.244 C 
ATOM     12  N   PRO A   3      12.659  -8.859  54.920  0.00  0.00    -0.272 N 
ATOM     13  CA  PRO A   3      12.572  -7.442  55.283  0.00  0.00    +0.152 C 
ATOM     14  CB  PRO A   3      13.656  -7.298  56.353  0.00  0.00    +0.031 C 
ATOM     15  CG  PRO A   3      14.668  -8.392  56.040  0.00  0.00    +0.024 C 
ATOM     16  CD  PRO A   3      14.025  -9.384  55.099  0.00  0.00    +0.094 C 
ATOM     17  O   VAL A   2      10.443  -9.113  54.575  0.00  0.00    -0.273 OA
BRANCH  11  18
ATOM     18  CA  VAL A   2      11.860 -10.970  53.991  0.00  0.00    +0.149 C 
BRANCH  18  21
ATOM     19  C   TYR A   1      12.022 -12.955  55.401  0.00  0.00    +0.239 C 
ATOM     20  O   TYR A   1      13.232 -13.070  55.190  0.00  0.00    -0.274 OA
ATOM     21  N   VAL A   2      11.279 -11.992  54.860  0.00  0.00    -0.297 N 
ATOM     22  H   VAL A   2      10.259 -11.966  55.061  0.00  0.00    +0.150 HD
BRANCH  19  23
ATOM     23  CA  TYR A   1      11.297 -13.941  56.313  0.00  0.00    +0.149 C 
BRANCH  23  24
ATOM     24  N   TYR A   1      11.556 -15.305  55.876  0.00  0.00    -0.238 NA
ATOM     25  H   TYR A   1      12.507 -15.547  55.531  0.00  0.00    +0.142 HD
ENDBRANCH  23  24
BRANCH  23  26
ATOM     26  CB  TYR A   1      11.741 -13.766  57.771  0.00  0.00    +0.053 C 
BRANCH  26  27
ATOM     27  CG  TYR A   1      12.061 -12.342  58.162  0.00  0.00    -0.020 A 
ATOM     28  CD2 TYR A   1      11.042 -11.416  58.387  0.00  0.00    -0.001 A 
ATOM     29  CE2 TYR A   1      11.329 -10.105  58.743  0.00  0.00    +0.036 A 
ATOM     30  CZ  TYR A   1      12.648  -9.707  58.877  0.00  0.00    +0.134 A 
ATOM     31  CE1 TYR A   1      13.681 -10.609  58.665  0.00  0.00    +0.036 A 
ATOM     32  CD1 TYR A   1      13.382 -11.919  58.308  0.00  0.00    -0.001 A 
BRANCH  30  33
ATOM     33  OH  TYR A   1      12.927  -8.408  59.237  0.00  0.00    -0.506 OA
ATOM     34  HH  TYR A   1      12.080  -7.908  59.346  0.00  0.00    +0.292 HD
ENDBRANCH  30  33
ENDBRANCH  26  27
ENDBRANCH  23  26
ENDBRANCH  19  23
ENDBRANCH  18  21
BRANCH  18  35
ATOM     35  CB  VAL A   2      11.370 -11.095  52.521  0.00  0.00    +0.027 C 
ATOM     36  CG2 VAL A   2      11.787 -12.426  51.920  0.00  0.00    +0.002 C 
ATOM     37  CG1 VAL A   2      11.912  -9.953  51.669  0.00  0.00    +0.002 C 
ENDBRANCH  18  35
ENDBRANCH  11  18
ENDBRANCH   7  13
ENDBRANCH   6   8
BRANCH   6  38
ATOM     38  CB  TYR A   4      10.876  -4.469  51.833  0.00  0.00    +0.055 C 
BRANCH  38  39
ATOM     39  CG  TYR A   4      10.350  -5.717  51.161  0.00  0.00    -0.020 A 
ATOM     40  CD2 TYR A   4       9.298  -6.437  51.719  0.00  0.00    -0.001 A 
ATOM     41  CE2 TYR A   4       8.814  -7.584  51.112  0.00  0.00    +0.036 A 
ATOM     42  CZ  TYR A   4       9.382  -8.027  49.932  0.00  0.00    +0.134 A 
ATOM     43  CE1 TYR A   4      10.430  -7.334  49.353  0.00  0.00    +0.036 A 
ATOM     44  CD1 TYR A   4      10.910  -6.183  49.970  0.00  0.00    -0.001 A 
BRANCH  42  45
ATOM     45  OH  TYR A   4       8.903  -9.163  49.330  0.00  0.00    -0.506 OA
ATOM     46  HH  TYR A   4       9.417  -9.338  48.502  0.00  0.00    +0.292 HD
ENDBRANCH  42  45
ENDBRANCH  38  39
ENDBRANCH   6  38
ENDBRANCH   2   6
ENDBRANCH   1   4
BRANCH   1  47
ATOM     47  C   THR A   5      11.998  -0.501  53.861  0.00  0.00    +0.243 C 
ATOM     48  O   THR A   5      12.210   0.123  54.902  0.00  0.00    -0.273 OA
ATOM     49  N   GLN A   6      10.777  -0.755  53.396  0.00  0.00    -0.297 N 
ATOM     50  H   GLN A   6      10.682  -1.204  52.463  0.00  0.00    +0.150 HD
BRANCH  49  51
ATOM     51  CA  GLN A   6       9.569  -0.430  54.140  0.00  0.00    +0.149 C 
BRANCH  51  52
ATOM     52  C   GLN A   6       8.614  -1.614  54.086  0.00  0.00    +0.241 C 
ATOM     53  N   GLY A   7       8.300  -2.158  55.258  0.00  0.00    -0.295 N 
ATOM     54  H   GLY A   7       8.684  -1.737  56.128  0.00  0.00    +0.150 HD
ATOM     55  O   GLN A   6       8.184  -2.031  53.006  0.00  0.00    -0.273 OA
BRANCH  53  56
ATOM     56  CA  GLY A   7       7.438  -3.322  55.361  0.00  0.00    +0.176 C 
BRANCH  56  57
ATOM     57  C   GLY A   7       8.204  -4.632  55.358  0.00  0.00    +0.243 C 
ATOM     58  N   LYS A   8       7.580  -5.665  55.918  0.00  0.00    -0.297 N 
ATOM     59  H   LYS A   8       6.634  -5.514  56.323  0.00  0.00    +0.150 HD
ATOM     60  O   GLY A   7       9.333  -4.706  54.865  0.00  0.00    -0.273 OA
BRANCH  58  61
ATOM     61  CA  LYS A   8       8.165  -7.003  55.989  0.00  0.00    +0.149 C 
BRANCH  61  62
ATOM     62  C   LYS A   8       7.077  -8.060  56.164  0.00  0.00    +0.241 C 
ATOM     63  O   LYS A   8       6.007  -7.770  56.702  0.00  0.00    -0.273 OA
ATOM     64  N   TRP A   9       7.353  -9.279  55.706  0.00  0.00    -0.298 N 
ATOM     65  H   TRP A   9       8.248  -9.442  55.202  0.00  0.00    +0.150 HD
BRANCH  64  66
ATOM     66  CA  TRP A   9       6.427 -10.395  55.895  0.00  0.00    +0.141 C 
BRANCH  66  67
ATOM     67  C   TRP A   9       7.129 -11.685  56.314  0.00  0.00    +0.227 C 
ATOM     68  O   TRP A   9       8.345 -11.829  56.160  0.00  0.00    -0.286 OA
ENDBRANCH  66  67
BRANCH  66  69
ATOM     69  CB  TRP A   9       5.562 -10.630  54.644  0.00  0.00    +0.056 C 
BRANCH  69  70
ATOM     70  CG  TRP A   9       6.335 -10.786  53.370  0.00  0.00    -0.002 A 
ATOM     71  CD2 TRP A   9       7.051 -11.947  52.930  0.00  0.00    +0.013 A 
ATOM     72  CE3 TRP A   9       7.271 -13.222  53.470  0.00  0.00    +0.001 A 
ATOM     73  CZ3 TRP A   9       8.043 -14.128  52.757  0.00  0.00    +0.000 A 
ATOM     74  CH2 TRP A   9       8.596 -13.788  51.516  0.00  0.00    +0.001 A 
ATOM     75  CZ2 TRP A   9       8.399 -12.551  50.961  0.00  0.00    +0.017 A 
ATOM     76  CE2 TRP A   9       7.623 -11.639  51.678  0.00  0.00    +0.056 A 
ATOM     77  NE1 TRP A   9       7.263 -10.354  51.370  0.00  0.00    -0.352 N 
ATOM     78  HE1 TRP A   9       7.531  -9.843  50.505  0.00  0.00    +0.166 HD
ATOM     79  CD1 TRP A   9       6.491  -9.849  52.388  0.00  0.00    +0.068 A 
ENDBRANCH  69  70
ENDBRANCH  66  69
ENDBRANCH  64  66
ENDBRANCH  61  62
BRANCH  61  80
ATOM     80  CB  LYS A   8       9.191  -7.099  57.132  0.00  0.00    +0.029 C 
BRANCH  80  81
ATOM     81  CG  LYS A   8       8.679  -6.671  58.510  0.00  0.00    +0.000 C 
BRANCH  81  82
ATOM     82  CD  LYS A   8       9.811  -6.613  59.529  0.00  0.00    -0.024 C 
BRANCH  82  83
ATOM     83  CE  LYS A   8       9.870  -5.256  60.219  0.00  0.00    -0.086 C 
BRANCH  83  84
ATOM     84  NZ  LYS A   8       9.234  -5.299  61.570  0.00  0.00    +0.380 N 
ATOM     85  HZ1 LYS A   8       9.732  -5.992  62.164  0.00  0.00    -0.089 HD
ATOM     86  HZ2 LYS A   8       9.293  -4.358  62.010  0.00  0.00    -0.089 HD
ATOM     87  HZ3 LYS A   8       8.236  -5.576  61.473  0.00  0.00    -0.089 HD
ENDBRANCH  83  84
ENDBRANCH  82  83
ENDBRANCH  81  82
ENDBRANCH  80  81
ENDBRANCH  61  80
ENDBRANCH  58  61
ENDBRANCH  56  57
ENDBRANCH  53  56
ENDBRANCH  51  52
BRANCH  51  88
ATOM     88  CB  GLN A   6       8.902   0.821  53.571  0.00  0.00    +0.039 C 
BRANCH  88  89
ATOM     89  CG  GLN A   6       8.998   2.036  54.478  0.00  0.00    +0.087 C 
BRANCH  89  90
ATOM     90  CD  GLN A   6       8.050   3.143  54.064  0.00  0.00    +0.219 C 
ATOM     91  NE2 GLN A   6       6.760   2.951  54.325  0.00  0.00    -0.329 N 
ATOM     92 HE21 GLN A   6       6.448   2.075  54.791  0.00  0.00    +0.145 HD
ATOM     93 HE22 GLN A   6       6.063   3.677  54.063  0.00  0.00    +0.145 HD
ATOM     94  OE1 GLN A   6       8.479   4.159  53.515  0.00  0.00    -0.275 OA
ENDBRANCH  89  90
ENDBRANCH  88  89
ENDBRANCH  51  88
ENDBRANCH  49  51
ENDBRANCH   1  47
BRANCH   1  95
ATOM     95  CB  THR A   5      13.506  -0.091  51.862  0.00  0.00    +0.137 C 
ATOM     96  CG2 THR A   5      14.112   1.206  52.385  0.00  0.00    +0.034 C 
BRANCH  95  97
ATOM     97  OG1 THR A   5      14.571  -0.654  51.084  0.00  0.00    -0.382 OA
ATOM     98  HG1 THR A   5      14.794  -0.041  50.340  0.00  0.00    +0.210 HD
ENDBRANCH  95  97
ENDBRANCH   1  95
TORSDOF 36
REMARK  Name = ../refined-set-2016/2fdp/2fdp_pocket.pdb
REMARK  241 active torsions:
REMARK  status: ('A' for Active; 'I' for Inactive)
REMARK    1  A    between atoms: _1  and  _3
REMARK    2  A    between atoms: _3  and  _4
REMARK    3  A    between atoms: _3  and  _6
REMARK    4  A    between atoms: _6  and  _7
REMARK    5  A    between atoms: _7  and  _8
REMARK    6  A    between atoms: _8  and  _9
REMARK    7  A    between atoms: _9  and  _10
REMARK    8  A    between atoms: _14  and  _16
REMARK    9  A    between atoms: _16  and  _17
REMARK   10  A    between atoms: _16  and  _19
REMARK   11  A    between atoms: _19  and  _20
REMARK   12  A    between atoms: _22  and  _24
REMARK   13  A    between atoms: _24  and  _25
REMARK   14  A    between atoms: _27  and  _29
REMARK   15  A    between atoms: _29  and  _30
REMARK   16  A    between atoms: _29  and  _32
REMARK   17  A    between atoms: _32  and  _33
REMARK   18  A    between atoms: _33  and  _34
REMARK   19  A    between atoms: _39  and  _41
REMARK   20  A    between atoms: _41  and  _42
REMARK   21  A    between atoms: _44  and  _46
REMARK   22  A    between atoms: _46  and  _47
REMARK   23  A    between atoms: _46  and  _49
REMARK   24  A    between atoms: _49  and  _50
REMARK   25  A    between atoms: _55  and  _56
REMARK   26  A    between atoms: _58  and  _60
REMARK   27  A    between atoms: _60  and  _61
REMARK   28  A    between atoms: _60  and  _63
REMARK   29  A    between atoms: _63  and  _64
REMARK   30  A    between atoms: _67  and  _69
REMARK   31  A    between atoms: _69  and  _70
REMARK   32  A    between atoms: _69  and  _72
REMARK   33  A    between atoms: _75  and  _77
REMARK   34  A    between atoms: _77  and  _78
REMARK   35  A    between atoms: _77  and  _80
REMARK   36  A    between atoms: _80  and  _81
REMARK   37  A    between atoms: _84  and  _86
REMARK   38  A    between atoms: _86  and  _87
REMARK   39  A    between atoms: _86  and  _89
REMARK   40  A    between atoms: _89  and  _90
REMARK   41  A    between atoms: _93  and  _95
REMARK   42  A    between atoms: _95  and  _96
REMARK   43  A    between atoms: _98  and  _100
REMARK   44  A    between atoms: _100  and  _101
REMARK   45  A    between atoms: _100  and  _103
REMARK   46  A    between atoms: _103  and  _104
REMARK   47  A    between atoms: _106  and  _108
REMARK   48  A    between atoms: _108  and  _109
REMARK   49  A    between atoms: _108  and  _111
REMARK   50  A    between atoms: _111  and  _112
REMARK   51  A    between atoms: _114  and  _116
REMARK   52  A    between atoms: _116  and  _117
REMARK   53  A    between atoms: _116  and  _119
REMARK   54  A    between atoms: _119  and  _120
REMARK   55  A    between atoms: _125  and  _127
REMARK   56  A    between atoms: _127  and  _128
REMARK   57  A    between atoms: _127  and  _130
REMARK   58  A    between atoms: _130  and  _131
REMARK   59  A    between atoms: _136  and  _137
REMARK   60  A    between atoms: _139  and  _141
REMARK   61  A    between atoms: _141  and  _142
REMARK   62  A    between atoms: _141  and  _144
REMARK   63  A    between atoms: _148  and  _149
REMARK   64  A    between atoms: _154  and  _156
REMARK   65  A    between atoms: _156  and  _157
REMARK   66  A    between atoms: _156  and  _159
REMARK   67  A    between atoms: _159  and  _160
REMARK   68  A    between atoms: _165  and  _166
REMARK   69  A    between atoms: _168  and  _170
REMARK   70  A    between atoms: _170  and  _171
REMARK   71  A    between atoms: _170  and  _173
REMARK   72  A    between atoms: _173  and  _174
REMARK   73  A    between atoms: _177  and  _179
REMARK   74  A    between atoms: _179  and  _180
REMARK   75  A    between atoms: _179  and  _182
REMARK   76  A    between atoms: _182  and  _183
REMARK   77  A    between atoms: _183  and  _184
REMARK   78  A    between atoms: _189  and  _191
REMARK   79  A    between atoms: _191  and  _192
REMARK   80  A    between atoms: _194  and  _196
REMARK   81  A    between atoms: _196  and  _197
REMARK   82  A    between atoms: _196  and  _199
REMARK   83  A    between atoms: _199  and  _200
REMARK   84  A    between atoms: _200  and  _201
REMARK   85  A    between atoms: _201  and  _202
REMARK   86  A    between atoms: _202  and  _203
REMARK   87  A    between atoms: _207  and  _209
REMARK   88  A    between atoms: _209  and  _210
REMARK   89  A    between atoms: _209  and  _212
REMARK   90  A    between atoms: _212  and  _213
REMARK   91  A    between atoms: _223  and  _225
REMARK   92  A    between atoms: _225  and  _226
REMARK   93  A    between atoms: _225  and  _228
REMARK   94  A    between atoms: _228  and  _229
REMARK   95  A    between atoms: _232  and  _234
REMARK   96  A    between atoms: _234  and  _235
REMARK   97  A    between atoms: _234  and  _237
REMARK   98  A    between atoms: _237  and  _238
REMARK   99  A    between atoms: _238  and  _239
REMARK  100  A    between atoms: _239  and  _240
REMARK  101  A    between atoms: _240  and  _241
REMARK  102  A    between atoms: _245  and  _247
REMARK  103  A    between atoms: _247  and  _248
REMARK  104  A    between atoms: _247  and  _250
REMARK  105  A    between atoms: _250  and  _251
REMARK  106  A    between atoms: _257  and  _259
REMARK  107  A    between atoms: _259  and  _260
REMARK  108  A    between atoms: _259  and  _262
REMARK  109  A    between atoms: _262  and  _263
REMARK  110  A    between atoms: _269  and  _271
REMARK  111  A    between atoms: _271  and  _272
REMARK  112  A    between atoms: _271  and  _274
REMARK  113  A    between atoms: _274  and  _275
REMARK  114  A    between atoms: _278  and  _280
REMARK  115  A    between atoms: _280  and  _281
REMARK  116  A    between atoms: _280  and  _283
REMARK  117  A    between atoms: _283  and  _284
REMARK  118  A    between atoms: _286  and  _288
REMARK  119  A    between atoms: _288  and  _289
REMARK  120  A    between atoms: _288  and  _291
REMARK  121  A    between atoms: _291  and  _292
REMARK  122  A    between atoms: _302  and  _304
REMARK  123  A    between atoms: _304  and  _305
REMARK  124  A    between atoms: _307  and  _309
REMARK  125  A    between atoms: _309  and  _310
REMARK  126  A    between atoms: _309  and  _312
REMARK  127  A    between atoms: _312  and  _313
REMARK  128  A    between atoms: _316  and  _318
REMARK  129  A    between atoms: _318  and  _319
REMARK  130  A    between atoms: _318  and  _321
REMARK  131  A    between atoms: _321  and  _322
REMARK  132  A    between atoms: _325  and  _327
REMARK  133  A    between atoms: _327  and  _328
REMARK  134  A    between atoms: _330  and  _332
REMARK  135  A    between atoms: _332  and  _333
REMARK  136  A    between atoms: _336  and  _338
REMARK  137  A    between atoms: _338  and  _339
REMARK  138  A    between atoms: _338  and  _341
REMARK  139  A    between atoms: _341  and  _342
REMARK  140  A    between atoms: _347  and  _348
REMARK  141  A    between atoms: _350  and  _352
REMARK  142  A    between atoms: _352  and  _353
REMARK  143  A    between atoms: _352  and  _355
REMARK  144  A    between atoms: _355  and  _356
REMARK  145  A    between atoms: _356  and  _357
REMARK  146  A    between atoms: _360  and  _362
REMARK  147  A    between atoms: _362  and  _363
REMARK  148  A    between atoms: _362  and  _365
REMARK  149  A    between atoms: _365  and  _366
REMARK  150  A    between atoms: _369  and  _371
REMARK  151  A    between atoms: _371  and  _372
REMARK  152  A    between atoms: _375  and  _377
REMARK  153  A    between atoms: _377  and  _378
REMARK  154  A    between atoms: _377  and  _380
REMARK  155  A    between atoms: _380  and  _381
REMARK  156  A    between atoms: _381  and  _382
REMARK  157  A    between atoms: _382  and  _383
REMARK  158  A    between atoms: _393  and  _394
REMARK  159  A    between atoms: _399  and  _401
REMARK  160  A    between atoms: _401  and  _402
REMARK  161  A    between atoms: _401  and  _404
REMARK  162  A    between atoms: _404  and  _405
REMARK  163  A    between atoms: _415  and  _417
REMARK  164  A    between atoms: _417  and  _418
REMARK  165  A    between atoms: _417  and  _420
REMARK  166  A    between atoms: _420  and  _421
REMARK  167  A    between atoms: _426  and  _427
REMARK  168  A    between atoms: _429  and  _431
REMARK  169  A    between atoms: _431  and  _432
REMARK  170  A    between atoms: _431  and  _434
REMARK  171  A    between atoms: _434  and  _435
REMARK  172  A    between atoms: _435  and  _436
REMARK  173  A    between atoms: _436  and  _437
REMARK  174  A    between atoms: _437  and  _438
REMARK  175  A    between atoms: _442  and  _444
REMARK  176  A    between atoms: _444  and  _445
REMARK  177  A    between atoms: _444  and  _447
REMARK  178  A    between atoms: _447  and  _448
REMARK  179  A    between atoms: _451  and  _453
REMARK  180  A    between atoms: _453  and  _454
REMARK  181  A    between atoms: _453  and  _456
REMARK  182  A    between atoms: _459  and  _461
REMARK  183  A    between atoms: _461  and  _462
REMARK  184  A    between atoms: _461  and  _464
REMARK  185  A    between atoms: _464  and  _465
REMARK  186  A    between atoms: _468  and  _470
REMARK  187  A    between atoms: _470  and  _471
REMARK  188  A    between atoms: _470  and  _473
REMARK  189  A    between atoms: _473  and  _474
REMARK  190  A    between atoms: _476  and  _478
REMARK  191  A    between atoms: _478  and  _479
REMARK  192  A    between atoms: _481  and  _483
REMARK  193  A    between atoms: _483  and  _484
REMARK  194  A    between atoms: _483  and  _486
REMARK  195  A    between atoms: _486  and  _487
REMARK  196  A    between atoms: _490  and  _492
REMARK  197  A    between atoms: _492  and  _493
REMARK  198  A    between atoms: _492  and  _495
REMARK  199  A    between atoms: _495  and  _496
REMARK  200  A    between atoms: _499  and  _501
REMARK  201  A    between atoms: _501  and  _502
REMARK  202  A    between atoms: _501  and  _504
REMARK  203  A    between atoms: _504  and  _505
REMARK  204  A    between atoms: _510  and  _512
REMARK  205  A    between atoms: _512  and  _513
REMARK  206  A    between atoms: _512  and  _515
REMARK  207  A    between atoms: _515  and  _516
REMARK  208  A    between atoms: _516  and  _517
REMARK  209  A    between atoms: _517  and  _518
REMARK  210  A    between atoms: _527  and  _529
REMARK  211  A    between atoms: _529  and  _530
REMARK  212  A    between atoms: _529  and  _532
REMARK  213  A    between atoms: _532  and  _533
REMARK  214  A    between atoms: _533  and  _534
REMARK  215  A    between atoms: _534  and  _535
REMARK  216  A    between atoms: _544  and  _546
REMARK  217  A    between atoms: _546  and  _547
REMARK  218  A    between atoms: _546  and  _549
REMARK  219  A    between atoms: _549  and  _550
REMARK  220  A    between atoms: _552  and  _554
REMARK  221  A    between atoms: _554  and  _555
REMARK  222  A    between atoms: _554  and  _557
REMARK  223  A    between atoms: _557  and  _558
REMARK  224  A    between atoms: _560  and  _562
REMARK  225  A    between atoms: _562  and  _563
REMARK  226  A    between atoms: _562  and  _565
REMARK  227  A    between atoms: _565  and  _566
REMARK  228  A    between atoms: _569  and  _571
REMARK  229  A    between atoms: _571  and  _572
REMARK  230  A    between atoms: _571  and  _574
REMARK  231  A    between atoms: _574  and  _575
REMARK  232  A    between atoms: _578  and  _580
REMARK  233  A    between atoms: _580  and  _581
REMARK  234  A    between atoms: _580  and  _583
REMARK  235  A    between atoms: _586  and  _588
REMARK  236  A    between atoms: _588  and  _589
REMARK  237  A    between atoms: _591  and  _593
REMARK  238  A    between atoms: _593  and  _594
REMARK  239  A    between atoms: _597  and  _599
REMARK  240  A    between atoms: _599  and  _600
REMARK  241  A    between atoms: _599  and  _602
REMARK                            x       y       z     vdW  Elec       q    Type
REMARK                         _______ _______ _______ _____ _____    ______ ____
ROOT
ATOM      1  CA  PHE A   3       3.559  -4.669  53.821  0.00  0.00    +0.153 C 
ENDROOT
BRANCH   1   3
ATOM      2  C   LYS A   2       3.625  -3.006  55.608  0.00  0.00    +0.241 C 
ATOM      3  N   PHE A   3       3.241  -4.200  55.166  0.00  0.00    -0.297 N 
ATOM      4  H   PHE A   3       2.696  -4.820  55.799  0.00  0.00    +0.150 HD
ATOM      5  O   LYS A   2       4.279  -2.217  54.920  0.00  0.00    -0.273 OA
BRANCH   2   6
ATOM      6  CA  LYS A   2       3.204  -2.640  57.039  0.00  0.00    +0.149 C 
BRANCH   6   8
ATOM      7  C   ASP A   1       4.188  -4.621  58.142  0.00  0.00    +0.239 C 
ATOM      8  N   LYS A   2       3.166  -3.784  57.960  0.00  0.00    -0.297 N 
ATOM      9  H   LYS A   2       2.293  -3.950  58.500  0.00  0.00    +0.150 HD
ATOM     10  O   ASP A   1       5.253  -4.541  57.523  0.00  0.00    -0.274 OA
BRANCH   7  11
ATOM     11  CA  ASP A   1       3.968  -5.727  59.170  0.00  0.00    +0.156 C 
BRANCH  11  12
ATOM     12  N   ASP A   1       4.011  -7.042  58.534  0.00  0.00    -0.238 NA
ATOM     13  H   ASP A   1       4.844  -7.294  57.964  0.00  0.00    +0.142 HD
ENDBRANCH  11  12
BRANCH  11  14
ATOM     14  CB  ASP A   1       5.011  -5.634  60.290  0.00  0.00    +0.140 C 
BRANCH  14  15
ATOM     15  CG  ASP A   1       4.875  -4.366  61.121  0.00  0.00    +0.367 C 
ATOM     16  OD2 ASP A   1       3.739  -4.014  61.508  0.00  0.00    -0.246 OA
ATOM     17  OD1 ASP A   1       5.854  -3.660  61.443  0.00  0.00    -0.246 OA
ENDBRANCH  14  15
ENDBRANCH  11  14
ENDBRANCH   7  11
ENDBRANCH   6   8
BRANCH   6  18
ATOM     18  CB  LYS A   2       4.087  -1.513  57.600  0.00  0.00    +0.029 C 
BRANCH  18  19
ATOM     19  CG  LYS A   2       3.467  -0.750  58.764  0.00  0.00    +0.000 C 
BRANCH  19  20
ATOM     20  CD  LYS A   2       4.535  -0.071  59.610  0.00  0.00    -0.024 C 
BRANCH  20  21
ATOM     21  CE  LYS A   2       4.070   0.110  61.050  0.00  0.00    -0.086 C 
BRANCH  21  22
ATOM     22  NZ  LYS A   2       4.870  -0.706  62.011  0.00  0.00    +0.380 N 
ATOM     23  HZ1 LYS A   2       4.516  -0.549  62.976  0.00  0.00    -0.089 HD
ATOM     24  HZ2 LYS A   2       5.869  -0.423  61.957  0.00  0.00    -0.089 HD
ATOM     25  HZ3 LYS A   2       4.780  -1.713  61.767  0.00  0.00    -0.089 HD
ENDBRANCH  21  22
ENDBRANCH  20  21
ENDBRANCH  19  20
ENDBRANCH  18  19
ENDBRANCH   6  18
ENDBRANCH   2   6
ENDBRANCH   1   3
BRANCH   1  26
ATOM     26  C   PHE A   3       2.408  -4.374  52.862  0.00  0.00    +0.241 C 
ATOM     27  N   PHE A   4       1.260  -5.003  53.107  0.00  0.00    -0.297 N 
ATOM     28  H   PHE A   4       1.212  -5.663  53.910  0.00  0.00    +0.150 HD
ATOM     29  O   PHE A   3       2.559  -3.583  51.927  0.00  0.00    -0.273 OA
BRANCH  27  30
ATOM     30  CA  PHE A   4       0.066  -4.801  52.291  0.00  0.00    +0.153 C 
BRANCH  30  31
ATOM     31  C   PHE A   4      -0.485  -3.386  52.451  0.00  0.00    +0.241 C 
ATOM     32  O   PHE A   4      -0.447  -2.813  53.544  0.00  0.00    -0.273 OA
ATOM     33  N   ILE A   5      -0.980  -2.828  51.348  0.00  0.00    -0.298 N 
ATOM     34  H   ILE A   5      -0.941  -3.363  50.457  0.00  0.00    +0.150 HD
BRANCH  33  35
ATOM     35  CA  ILE A   5      -1.576  -1.494  51.341  0.00  0.00    +0.137 C 
BRANCH  35  36
ATOM     36  CB  ILE A   5      -1.004  -0.640  50.177  0.00  0.00    +0.026 C 
ATOM     37  CG2 ILE A   5      -1.647   0.744  50.150  0.00  0.00    +0.002 C 
BRANCH  36  38
ATOM     38  CG1 ILE A   5       0.518  -0.505  50.296  0.00  0.00    +0.002 C 
ATOM     39  CD1 ILE A   5       1.236  -0.349  48.965  0.00  0.00    +0.000 C 
ENDBRANCH  36  38
ENDBRANCH  35  36
BRANCH  35  40
ATOM     40  C   ILE A   5      -3.097  -1.607  51.240  0.00  0.00    +0.227 C 
ATOM     41  O   ILE A   5      -3.614  -2.369  50.420  0.00  0.00    -0.286 OA
ENDBRANCH  35  40
ENDBRANCH  33  35
ENDBRANCH  30  31
BRANCH  30  42
ATOM     42  CB  PHE A   4      -1.015  -5.834  52.639  0.00  0.00    +0.055 C 
BRANCH  42  43
ATOM     43  CG  PHE A   4      -0.599  -7.265  52.400  0.00  0.00    -0.020 A 
ATOM     44  CD2 PHE A   4      -0.481  -8.152  53.465  0.00  0.00    -0.004 A 
ATOM     45  CE2 PHE A   4      -0.099  -9.477  53.255  0.00  0.00    -0.000 A 
ATOM     46  CZ  PHE A   4       0.165  -9.926  51.967  0.00  0.00    -0.000 A 
ATOM     47  CE1 PHE A   4       0.047  -9.049  50.892  0.00  0.00    -0.000 A 
ATOM     48  CD1 PHE A   4      -0.335  -7.727  51.113  0.00  0.00    -0.004 A 
ENDBRANCH  42  43
ENDBRANCH  30  42
ENDBRANCH  27  30
ENDBRANCH   1  26
BRANCH   1  49
ATOM     49  CB  PHE A   3       3.908  -6.165  53.835  0.00  0.00    +0.055 C 
BRANCH  49  50
ATOM     50  CG  PHE A   3       4.157  -6.753  52.468  0.00  0.00    -0.020 A 
ATOM     51  CD2 PHE A   3       3.371  -7.801  51.999  0.00  0.00    -0.004 A 
ATOM     52  CE2 PHE A   3       3.596  -8.353  50.738  0.00  0.00    -0.000 A 
ATOM     53  CZ  PHE A   3       4.614  -7.853  49.935  0.00  0.00    -0.000 A 
ATOM     54  CE1 PHE A   3       5.406  -6.807  50.393  0.00  0.00    -0.000 A 
ATOM     55  CD1 PHE A   3       5.177  -6.266  51.655  0.00  0.00    -0.004 A 
ENDBRANCH  49  50
ENDBRANCH   1  49
TORSDOF 23
REMARK  Name = ../refined-set-2016/2fdp/2fdp_pocket.pdb
REMARK  241 active torsions:
REMARK  status: ('A' for Active; 'I' for Inactive)
REMARK    1  A    between atoms: _1  and  _3
REMARK    2  A    between atoms: _3  and  _4
REMARK    3  A    between atoms: _3  and  _6
REMARK    4  A    between atoms: _6  and  _7
REMARK    5  A    between atoms: _7  and  _8
REMARK    6  A    between atoms: _8  and  _9
REMARK    7  A    between atoms: _9  and  _10
REMARK    8  A    between atoms: _14  and  _16
REMARK    9  A    between atoms: _16  and  _17
REMARK   10  A    between atoms: _16  and  _19
REMARK   11  A    between atoms: _19  and  _20
REMARK   12  A    between atoms: _22  and  _24
REMARK   13  A    between atoms: _24  and  _25
REMARK   14  A    between atoms: _27  and  _29
REMARK   15  A    between atoms: _29  and  _30
REMARK   16  A    between atoms: _29  and  _32
REMARK   17  A    between atoms: _32  and  _33
REMARK   18  A    between atoms: _33  and  _34
REMARK   19  A    between atoms: _39  and  _41
REMARK   20  A    between atoms: _41  and  _42
REMARK   21  A    between atoms: _44  and  _46
REMARK   22  A    between atoms: _46  and  _47
REMARK   23  A    between atoms: _46  and  _49
REMARK   24  A    between atoms: _49  and  _50
REMARK   25  A    between atoms: _55  and  _56
REMARK   26  A    between atoms: _58  and  _60
REMARK   27  A    between atoms: _60  and  _61
REMARK   28  A    between atoms: _60  and  _63
REMARK   29  A    between atoms: _63  and  _64
REMARK   30  A    between atoms: _67  and  _69
REMARK   31  A    between atoms: _69  and  _70
REMARK   32  A    between atoms: _69  and  _72
REMARK   33  A    between atoms: _75  and  _77
REMARK   34  A    between atoms: _77  and  _78
REMARK   35  A    between atoms: _77  and  _80
REMARK   36  A    between atoms: _80  and  _81
REMARK   37  A    between atoms: _84  and  _86
REMARK   38  A    between atoms: _86  and  _87
REMARK   39  A    between atoms: _86  and  _89
REMARK   40  A    between atoms: _89  and  _90
REMARK   41  A    between atoms: _93  and  _95
REMARK   42  A    between atoms: _95  and  _96
REMARK   43  A    between atoms: _98  and  _100
REMARK   44  A    between atoms: _100  and  _101
REMARK   45  A    between atoms: _100  and  _103
REMARK   46  A    between atoms: _103  and  _104
REMARK   47  A    between atoms: _106  and  _108
REMARK   48  A    between atoms: _108  and  _109
REMARK   49  A    between atoms: _108  and  _111
REMARK   50  A    between atoms: _111  and  _112
REMARK   51  A    between atoms: _114  and  _116
REMARK   52  A    between atoms: _116  and  _117
REMARK   53  A    between atoms: _116  and  _119
REMARK   54  A    between atoms: _119  and  _120
REMARK   55  A    between atoms: _125  and  _127
REMARK   56  A    between atoms: _127  and  _128
REMARK   57  A    between atoms: _127  and  _130
REMARK   58  A    between atoms: _130  and  _131
REMARK   59  A    between atoms: _136  and  _137
REMARK   60  A    between atoms: _139  and  _141
REMARK   61  A    between atoms: _141  and  _142
REMARK   62  A    between atoms: _141  and  _144
REMARK   63  A    between atoms: _148  and  _149
REMARK   64  A    between atoms: _154  and  _156
REMARK   65  A    between atoms: _156  and  _157
REMARK   66  A    between atoms: _156  and  _159
REMARK   67  A    between atoms: _159  and  _160
REMARK   68  A    between atoms: _165  and  _166
REMARK   69  A    between atoms: _168  and  _170
REMARK   70  A    between atoms: _170  and  _171
REMARK   71  A    between atoms: _170  and  _173
REMARK   72  A    between atoms: _173  and  _174
REMARK   73  A    between atoms: _177  and  _179
REMARK   74  A    between atoms: _179  and  _180
REMARK   75  A    between atoms: _179  and  _182
REMARK   76  A    between atoms: _182  and  _183
REMARK   77  A    between atoms: _183  and  _184
REMARK   78  A    between atoms: _189  and  _191
REMARK   79  A    between atoms: _191  and  _192
REMARK   80  A    between atoms: _194  and  _196
REMARK   81  A    between atoms: _196  and  _197
REMARK   82  A    between atoms: _196  and  _199
REMARK   83  A    between atoms: _199  and  _200
REMARK   84  A    between atoms: _200  and  _201
REMARK   85  A    between atoms: _201  and  _202
REMARK   86  A    between atoms: _202  and  _203
REMARK   87  A    between atoms: _207  and  _209
REMARK   88  A    between atoms: _209  and  _210
REMARK   89  A    between atoms: _209  and  _212
REMARK   90  A    between atoms: _212  and  _213
REMARK   91  A    between atoms: _223  and  _225
REMARK   92  A    between atoms: _225  and  _226
REMARK   93  A    between atoms: _225  and  _228
REMARK   94  A    between atoms: _228  and  _229
REMARK   95  A    between atoms: _232  and  _234
REMARK   96  A    between atoms: _234  and  _235
REMARK   97  A    between atoms: _234  and  _237
REMARK   98  A    between atoms: _237  and  _238
REMARK   99  A    between atoms: _238  and  _239
REMARK  100  A    between atoms: _239  and  _240
REMARK  101  A    between atoms: _240  and  _241
REMARK  102  A    between atoms: _245  and  _247
REMARK  103  A    between atoms: _247  and  _248
REMARK  104  A    between atoms: _247  and  _250
REMARK  105  A    between atoms: _250  and  _251
REMARK  106  A    between atoms: _257  and  _259
REMARK  107  A    between atoms: _259  and  _260
REMARK  108  A    between atoms: _259  and  _262
REMARK  109  A    between atoms: _262  and  _263
REMARK  110  A    between atoms: _269  and  _271
REMARK  111  A    between atoms: _271  and  _272
REMARK  112  A    between atoms: _271  and  _274
REMARK  113  A    between atoms: _274  and  _275
REMARK  114  A    between atoms: _278  and  _280
REMARK  115  A    between atoms: _280  and  _281
REMARK  116  A    between atoms: _280  and  _283
REMARK  117  A    between atoms: _283  and  _284
REMARK  118  A    between atoms: _286  and  _288
REMARK  119  A    between atoms: _288  and  _289
REMARK  120  A    between atoms: _288  and  _291
REMARK  121  A    between atoms: _291  and  _292
REMARK  122  A    between atoms: _302  and  _304
REMARK  123  A    between atoms: _304  and  _305
REMARK  124  A    between atoms: _307  and  _309
REMARK  125  A    between atoms: _309  and  _310
REMARK  126  A    between atoms: _309  and  _312
REMARK  127  A    between atoms: _312  and  _313
REMARK  128  A    between atoms: _316  and  _318
REMARK  129  A    between atoms: _318  and  _319
REMARK  130  A    between atoms: _318  and  _321
REMARK  131  A    between atoms: _321  and  _322
REMARK  132  A    between atoms: _325  and  _327
REMARK  133  A    between atoms: _327  and  _328
REMARK  134  A    between atoms: _330  and  _332
REMARK  135  A    between atoms: _332  and  _333
REMARK  136  A    between atoms: _336  and  _338
REMARK  137  A    between atoms: _338  and  _339
REMARK  138  A    between atoms: _338  and  _341
REMARK  139  A    between atoms: _341  and  _342
REMARK  140  A    between atoms: _347  and  _348
REMARK  141  A    between atoms: _350  and  _352
REMARK  142  A    between atoms: _352  and  _353
REMARK  143  A    between atoms: _352  and  _355
REMARK  144  A    between atoms: _355  and  _356
REMARK  145  A    between atoms: _356  and  _357
REMARK  146  A    between atoms: _360  and  _362
REMARK  147  A    between atoms: _362  and  _363
REMARK  148  A    between atoms: _362  and  _365
REMARK  149  A    between atoms: _365  and  _366
REMARK  150  A    between atoms: _369  and  _371
REMARK  151  A    between atoms: _371  and  _372
REMARK  152  A    between atoms: _375  and  _377
REMARK  153  A    between atoms: _377  and  _378
REMARK  154  A    between atoms: _377  and  _380
REMARK  155  A    between atoms: _380  and  _381
REMARK  156  A    between atoms: _381  and  _382
REMARK  157  A    between atoms: _382  and  _383
REMARK  158  A    between atoms: _393  and  _394
REMARK  159  A    between atoms: _399  and  _401
REMARK  160  A    between atoms: _401  and  _402
REMARK  161  A    between atoms: _401  and  _404
REMARK  162  A    between atoms: _404  and  _405
REMARK  163  A    between atoms: _415  and  _417
REMARK  164  A    between atoms: _417  and  _418
REMARK  165  A    between atoms: _417  and  _420
REMARK  166  A    between atoms: _420  and  _421
REMARK  167  A    between atoms: _426  and  _427
REMARK  168  A    between atoms: _429  and  _431
REMARK  169  A    between atoms: _431  and  _432
REMARK  170  A    between atoms: _431  and  _434
REMARK  171  A    between atoms: _434  and  _435
REMARK  172  A    between atoms: _435  and  _436
REMARK  173  A    between atoms: _436  and  _437
REMARK  174  A    between atoms: _437  and  _438
REMARK  175  A    between atoms: _442  and  _444
REMARK  176  A    between atoms: _444  and  _445
REMARK  177  A    between atoms: _444  and  _447
REMARK  178  A    between atoms: _447  and  _448
REMARK  179  A    between atoms: _451  and  _453
REMARK  180  A    between atoms: _453  and  _454
REMARK  181  A    between atoms: _453  and  _456
REMARK  182  A    between atoms: _459  and  _461
REMARK  183  A    between atoms: _461  and  _462
REMARK  184  A    between atoms: _461  and  _464
REMARK  185  A    between atoms: _464  and  _465
REMARK  186  A    between atoms: _468  and  _470
REMARK  187  A    between atoms: _470  and  _471
REMARK  188  A    between atoms: _470  and  _473
REMARK  189  A    between atoms: _473  and  _474
REMARK  190  A    between atoms: _476  and  _478
REMARK  191  A    between atoms: _478  and  _479
REMARK  192  A    between atoms: _481  and  _483
REMARK  193  A    between atoms: _483  and  _484
REMARK  194  A    between atoms: _483  and  _486
REMARK  195  A    between atoms: _486  and  _487
REMARK  196  A    between atoms: _490  and  _492
REMARK  197  A    between atoms: _492  and  _493
REMARK  198  A    between atoms: _492  and  _495
REMARK  199  A    between atoms: _495  and  _496
REMARK  200  A    between atoms: _499  and  _501
REMARK  201  A    between atoms: _501  and  _502
REMARK  202  A    between atoms: _501  and  _504
REMARK  203  A    between atoms: _504  and  _505
REMARK  204  A    between atoms: _510  and  _512
REMARK  205  A    between atoms: _512  and  _513
REMARK  206  A    between atoms: _512  and  _515
REMARK  207  A    between atoms: _515  and  _516
REMARK  208  A    between atoms: _516  and  _517
REMARK  209  A    between atoms: _517  and  _518
REMARK  210  A    between atoms: _527  and  _529
REMARK  211  A    between atoms: _529  and  _530
REMARK  212  A    between atoms: _529  and  _532
REMARK  213  A    between atoms: _532  and  _533
REMARK  214  A    between atoms: _533  and  _534
REMARK  215  A    between atoms: _534  and  _535
REMARK  216  A    between atoms: _544  and  _546
REMARK  217  A    between atoms: _546  and  _547
REMARK  218  A    between atoms: _546  and  _549
REMARK  219  A    between atoms: _549  and  _550
REMARK  220  A    between atoms: _552  and  _554
REMARK  221  A    between atoms: _554  and  _555
REMARK  222  A    between atoms: _554  and  _557
REMARK  223  A    between atoms: _557  and  _558
REMARK  224  A    between atoms: _560  and  _562
REMARK  225  A    between atoms: _562  and  _563
REMARK  226  A    between atoms: _562  and  _565
REMARK  227  A    between atoms: _565  and  _566
REMARK  228  A    between atoms: _569  and  _571
REMARK  229  A    between atoms: _571  and  _572
REMARK  230  A    between atoms: _571  and  _574
REMARK  231  A    between atoms: _574  and  _575
REMARK  232  A    between atoms: _578  and  _580
REMARK  233  A    between atoms: _580  and  _581
REMARK  234  A    between atoms: _580  and  _583
REMARK  235  A    between atoms: _586  and  _588
REMARK  236  A    between atoms: _588  and  _589
REMARK  237  A    between atoms: _591  and  _593
REMARK  238  A    between atoms: _593  and  _594
REMARK  239  A    between atoms: _597  and  _599
REMARK  240  A    between atoms: _599  and  _600
REMARK  241  A    between atoms: _599  and  _602
REMARK                            x       y       z     vdW  Elec       q    Type
REMARK                         _______ _______ _______ _____ _____    ______ ____
ROOT
ATOM      1  CA  SER A   1      -4.259  -1.572  46.627  0.00  0.00    +0.163 C 
ENDROOT
BRANCH   1   2
ATOM      2  N   SER A   1      -5.230  -1.594  47.722  0.00  0.00    -0.237 NA
ATOM      3  H   SER A   1      -5.019  -2.158  48.570  0.00  0.00    +0.142 HD
ENDBRANCH   1   2
BRANCH   1   4
ATOM      4  C   SER A   1      -4.635  -2.541  45.509  0.00  0.00    +0.227 C 
ATOM      5  O   SER A   1      -4.173  -2.399  44.376  0.00  0.00    -0.287 OA
ENDBRANCH   1   4
BRANCH   1   6
ATOM      6  CB  SER A   1      -2.853  -1.882  47.146  0.00  0.00    +0.162 C 
BRANCH   6   7
ATOM      7  OG  SER A   1      -2.719  -3.250  47.499  0.00  0.00    -0.380 OA
ATOM      8  H   SER A   1      -3.372  -3.472  48.209  0.00  0.00    +0.211 HD
ENDBRANCH   6   7
ENDBRANCH   1   6
TORSDOF 4
REMARK  Name = ../refined-set-2016/2fdp/2fdp_pocket.pdb
REMARK  241 active torsions:
REMARK  status: ('A' for Active; 'I' for Inactive)
REMARK    1  A    between atoms: _1  and  _3
REMARK    2  A    between atoms: _3  and  _4
REMARK    3  A    between atoms: _3  and  _6
REMARK    4  A    between atoms: _6  and  _7
REMARK    5  A    between atoms: _7  and  _8
REMARK    6  A    between atoms: _8  and  _9
REMARK    7  A    between atoms: _9  and  _10
REMARK    8  A    between atoms: _14  and  _16
REMARK    9  A    between atoms: _16  and  _17
REMARK   10  A    between atoms: _16  and  _19
REMARK   11  A    between atoms: _19  and  _20
REMARK   12  A    between atoms: _22  and  _24
REMARK   13  A    between atoms: _24  and  _25
REMARK   14  A    between atoms: _27  and  _29
REMARK   15  A    between atoms: _29  and  _30
REMARK   16  A    between atoms: _29  and  _32
REMARK   17  A    between atoms: _32  and  _33
REMARK   18  A    between atoms: _33  and  _34
REMARK   19  A    between atoms: _39  and  _41
REMARK   20  A    between atoms: _41  and  _42
REMARK   21  A    between atoms: _44  and  _46
REMARK   22  A    between atoms: _46  and  _47
REMARK   23  A    between atoms: _46  and  _49
REMARK   24  A    between atoms: _49  and  _50
REMARK   25  A    between atoms: _55  and  _56
REMARK   26  A    between atoms: _58  and  _60
REMARK   27  A    between atoms: _60  and  _61
REMARK   28  A    between atoms: _60  and  _63
REMARK   29  A    between atoms: _63  and  _64
REMARK   30  A    between atoms: _67  and  _69
REMARK   31  A    between atoms: _69  and  _70
REMARK   32  A    between atoms: _69  and  _72
REMARK   33  A    between atoms: _75  and  _77
REMARK   34  A    between atoms: _77  and  _78
REMARK   35  A    between atoms: _77  and  _80
REMARK   36  A    between atoms: _80  and  _81
REMARK   37  A    between atoms: _84  and  _86
REMARK   38  A    between atoms: _86  and  _87
REMARK   39  A    between atoms: _86  and  _89
REMARK   40  A    between atoms: _89  and  _90
REMARK   41  A    between atoms: _93  and  _95
REMARK   42  A    between atoms: _95  and  _96
REMARK   43  A    between atoms: _98  and  _100
REMARK   44  A    between atoms: _100  and  _101
REMARK   45  A    between atoms: _100  and  _103
REMARK   46  A    between atoms: _103  and  _104
REMARK   47  A    between atoms: _106  and  _108
REMARK   48  A    between atoms: _108  and  _109
REMARK   49  A    between atoms: _108  and  _111
REMARK   50  A    between atoms: _111  and  _112
REMARK   51  A    between atoms: _114  and  _116
REMARK   52  A    between atoms: _116  and  _117
REMARK   53  A    between atoms: _116  and  _119
REMARK   54  A    between atoms: _119  and  _120
REMARK   55  A    between atoms: _125  and  _127
REMARK   56  A    between atoms: _127  and  _128
REMARK   57  A    between atoms: _127  and  _130
REMARK   58  A    between atoms: _130  and  _131
REMARK   59  A    between atoms: _136  and  _137
REMARK   60  A    between atoms: _139  and  _141
REMARK   61  A    between atoms: _141  and  _142
REMARK   62  A    between atoms: _141  and  _144
REMARK   63  A    between atoms: _148  and  _149
REMARK   64  A    between atoms: _154  and  _156
REMARK   65  A    between atoms: _156  and  _157
REMARK   66  A    between atoms: _156  and  _159
REMARK   67  A    between atoms: _159  and  _160
REMARK   68  A    between atoms: _165  and  _166
REMARK   69  A    between atoms: _168  and  _170
REMARK   70  A    between atoms: _170  and  _171
REMARK   71  A    between atoms: _170  and  _173
REMARK   72  A    between atoms: _173  and  _174
REMARK   73  A    between atoms: _177  and  _179
REMARK   74  A    between atoms: _179  and  _180
REMARK   75  A    between atoms: _179  and  _182
REMARK   76  A    between atoms: _182  and  _183
REMARK   77  A    between atoms: _183  and  _184
REMARK   78  A    between atoms: _189  and  _191
REMARK   79  A    between atoms: _191  and  _192
REMARK   80  A    between atoms: _194  and  _196
REMARK   81  A    between atoms: _196  and  _197
REMARK   82  A    between atoms: _196  and  _199
REMARK   83  A    between atoms: _199  and  _200
REMARK   84  A    between atoms: _200  and  _201
REMARK   85  A    between atoms: _201  and  _202
REMARK   86  A    between atoms: _202  and  _203
REMARK   87  A    between atoms: _207  and  _209
REMARK   88  A    between atoms: _209  and  _210
REMARK   89  A    between atoms: _209  and  _212
REMARK   90  A    between atoms: _212  and  _213
REMARK   91  A    between atoms: _223  and  _225
REMARK   92  A    between atoms: _225  and  _226
REMARK   93  A    between atoms: _225  and  _228
REMARK   94  A    between atoms: _228  and  _229
REMARK   95  A    between atoms: _232  and  _234
REMARK   96  A    between atoms: _234  and  _235
REMARK   97  A    between atoms: _234  and  _237
REMARK   98  A    between atoms: _237  and  _238
REMARK   99  A    between atoms: _238  and  _239
REMARK  100  A    between atoms: _239  and  _240
REMARK  101  A    between atoms: _240  and  _241
REMARK  102  A    between atoms: _245  and  _247
REMARK  103  A    between atoms: _247  and  _248
REMARK  104  A    between atoms: _247  and  _250
REMARK  105  A    between atoms: _250  and  _251
REMARK  106  A    between atoms: _257  and  _259
REMARK  107  A    between atoms: _259  and  _260
REMARK  108  A    between atoms: _259  and  _262
REMARK  109  A    between atoms: _262  and  _263
REMARK  110  A    between atoms: _269  and  _271
REMARK  111  A    between atoms: _271  and  _272
REMARK  112  A    between atoms: _271  and  _274
REMARK  113  A    between atoms: _274  and  _275
REMARK  114  A    between atoms: _278  and  _280
REMARK  115  A    between atoms: _280  and  _281
REMARK  116  A    between atoms: _280  and  _283
REMARK  117  A    between atoms: _283  and  _284
REMARK  118  A    between atoms: _286  and  _288
REMARK  119  A    between atoms: _288  and  _289
REMARK  120  A    between atoms: _288  and  _291
REMARK  121  A    between atoms: _291  and  _292
REMARK  122  A    between atoms: _302  and  _304
REMARK  123  A    between atoms: _304  and  _305
REMARK  124  A    between atoms: _307  and  _309
REMARK  125  A    between atoms: _309  and  _310
REMARK  126  A    between atoms: _309  and  _312
REMARK  127  A    between atoms: _312  and  _313
REMARK  128  A    between atoms: _316  and  _318
REMARK  129  A    between atoms: _318  and  _319
REMARK  130  A    between atoms: _318  and  _321
REMARK  131  A    between atoms: _321  and  _322
REMARK  132  A    between atoms: _325  and  _327
REMARK  133  A    between atoms: _327  and  _328
REMARK  134  A    between atoms: _330  and  _332
REMARK  135  A    between atoms: _332  and  _333
REMARK  136  A    between atoms: _336  and  _338
REMARK  137  A    between atoms: _338  and  _339
REMARK  138  A    between atoms: _338  and  _341
REMARK  139  A    between atoms: _341  and  _342
REMARK  140  A    between atoms: _347  and  _348
REMARK  141  A    between atoms: _350  and  _352
REMARK  142  A    between atoms: _352  and  _353
REMARK  143  A    between atoms: _352  and  _355
REMARK  144  A    between atoms: _355  and  _356
REMARK  145  A    between atoms: _356  and  _357
REMARK  146  A    between atoms: _360  and  _362
REMARK  147  A    between atoms: _362  and  _363
REMARK  148  A    between atoms: _362  and  _365
REMARK  149  A    between atoms: _365  and  _366
REMARK  150  A    between atoms: _369  and  _371
REMARK  151  A    between atoms: _371  and  _372
REMARK  152  A    between atoms: _375  and  _377
REMARK  153  A    between atoms: _377  and  _378
REMARK  154  A    between atoms: _377  and  _380
REMARK  155  A    between atoms: _380  and  _381
REMARK  156  A    between atoms: _381  and  _382
REMARK  157  A    between atoms: _382  and  _383
REMARK  158  A    between atoms: _393  and  _394
REMARK  159  A    between atoms: _399  and  _401
REMARK  160  A    between atoms: _401  and  _402
REMARK  161  A    between atoms: _401  and  _404
REMARK  162  A    between atoms: _404  and  _405
REMARK  163  A    between atoms: _415  and  _417
REMARK  164  A    between atoms: _417  and  _418
REMARK  165  A    between atoms: _417  and  _420
REMARK  166  A    between atoms: _420  and  _421
REMARK  167  A    between atoms: _426  and  _427
REMARK  168  A    between atoms: _429  and  _431
REMARK  169  A    between atoms: _431  and  _432
REMARK  170  A    between atoms: _431  and  _434
REMARK  171  A    between atoms: _434  and  _435
REMARK  172  A    between atoms: _435  and  _436
REMARK  173  A    between atoms: _436  and  _437
REMARK  174  A    between atoms: _437  and  _438
REMARK  175  A    between atoms: _442  and  _444
REMARK  176  A    between atoms: _444  and  _445
REMARK  177  A    between atoms: _444  and  _447
REMARK  178  A    between atoms: _447  and  _448
REMARK  179  A    between atoms: _451  and  _453
REMARK  180  A    between atoms: _453  and  _454
REMARK  181  A    between atoms: _453  and  _456
REMARK  182  A    between atoms: _459  and  _461
REMARK  183  A    between atoms: _461  and  _462
REMARK  184  A    between atoms: _461  and  _464
REMARK  185  A    between atoms: _464  and  _465
REMARK  186  A    between atoms: _468  and  _470
REMARK  187  A    between atoms: _470  and  _471
REMARK  188  A    between atoms: _470  and  _473
REMARK  189  A    between atoms: _473  and  _474
REMARK  190  A    between atoms: _476  and  _478
REMARK  191  A    between atoms: _478  and  _479
REMARK  192  A    between atoms: _481  and  _483
REMARK  193  A    between atoms: _483  and  _484
REMARK  194  A    between atoms: _483  and  _486
REMARK  195  A    between atoms: _486  and  _487
REMARK  196  A    between atoms: _490  and  _492
REMARK  197  A    between atoms: _492  and  _493
REMARK  198  A    between atoms: _492  and  _495
REMARK  199  A    between atoms: _495  and  _496
REMARK  200  A    between atoms: _499  and  _501
REMARK  201  A    between atoms: _501  and  _502
REMARK  202  A    between atoms: _501  and  _504
REMARK  203  A    between atoms: _504  and  _505
REMARK  204  A    between atoms: _510  and  _512
REMARK  205  A    between atoms: _512  and  _513
REMARK  206  A    between atoms: _512  and  _515
REMARK  207  A    between atoms: _515  and  _516
REMARK  208  A    between atoms: _516  and  _517
REMARK  209  A    between atoms: _517  and  _518
REMARK  210  A    between atoms: _527  and  _529
REMARK  211  A    between atoms: _529  and  _530
REMARK  212  A    between atoms: _529  and  _532
REMARK  213  A    between atoms: _532  and  _533
REMARK  214  A    between atoms: _533  and  _534
REMARK  215  A    between atoms: _534  and  _535
REMARK  216  A    between atoms: _544  and  _546
REMARK  217  A    between atoms: _546  and  _547
REMARK  218  A    between atoms: _546  and  _549
REMARK  219  A    between atoms: _549  and  _550
REMARK  220  A    between atoms: _552  and  _554
REMARK  221  A    between atoms: _554  and  _555
REMARK  222  A    between atoms: _554  and  _557
REMARK  223  A    between atoms: _557  and  _558
REMARK  224  A    between atoms: _560  and  _562
REMARK  225  A    between atoms: _562  and  _563
REMARK  226  A    between atoms: _562  and  _565
REMARK  227  A    between atoms: _565  and  _566
REMARK  228  A    between atoms: _569  and  _571
REMARK  229  A    between atoms: _571  and  _572
REMARK  230  A    between atoms: _571  and  _574
REMARK  231  A    between atoms: _574  and  _575
REMARK  232  A    between atoms: _578  and  _580
REMARK  233  A    between atoms: _580  and  _581
REMARK  234  A    between atoms: _580  and  _583
REMARK  235  A    between atoms: _586  and  _588
REMARK  236  A    between atoms: _588  and  _589
REMARK  237  A    between atoms: _591  and  _593
REMARK  238  A    between atoms: _593  and  _594
REMARK  239  A    between atoms: _597  and  _599
REMARK  240  A    between atoms: _599  and  _600
REMARK  241  A    between atoms: _599  and  _602
REMARK                            x       y       z     vdW  Elec       q    Type
REMARK                         _______ _______ _______ _____ _____    ______ ____
ROOT
ATOM      1  CG  TRP A   1      -0.697  -5.232  45.285  0.00  0.00    -0.002 A 
ATOM      2  CD2 TRP A   1       0.163  -5.473  46.407  0.00  0.00    +0.013 A 
ATOM      3  CE3 TRP A   1       0.569  -6.623  47.100  0.00  0.00    +0.001 A 
ATOM      4  CZ3 TRP A   1       1.431  -6.486  48.186  0.00  0.00    +0.000 A 
ATOM      5  CH2 TRP A   1       1.893  -5.222  48.591  0.00  0.00    +0.001 A 
ATOM      6  CZ2 TRP A   1       1.516  -4.080  47.933  0.00  0.00    +0.017 A 
ATOM      7  CE2 TRP A   1       0.648  -4.217  46.843  0.00  0.00    +0.056 A 
ATOM      8  NE1 TRP A   1       0.116  -3.265  46.014  0.00  0.00    -0.352 N 
ATOM      9  HE1 TRP A   1       0.288  -2.242  46.081  0.00  0.00    +0.166 HD
ATOM     10  CD1 TRP A   1      -0.682  -3.881  45.080  0.00  0.00    +0.068 A 
ENDROOT
BRANCH   1  11
ATOM     11  CB  TRP A   1      -1.431  -6.260  44.463  0.00  0.00    +0.053 C 
BRANCH  11  12
ATOM     12  CA  TRP A   1      -2.793  -6.722  45.002  0.00  0.00    +0.137 C 
BRANCH  12  13
ATOM     13  N   TRP A   1      -3.748  -5.616  45.141  0.00  0.00    -0.239 NA
ATOM     14  H   TRP A   1      -3.468  -4.760  45.660  0.00  0.00    +0.142 HD
ENDBRANCH  12  13
BRANCH  12  15
ATOM     15  C   TRP A   1      -2.642  -7.548  46.280  0.00  0.00    +0.224 C 
ATOM     16  O   TRP A   1      -2.744  -7.023  47.391  0.00  0.00    -0.287 OA
ENDBRANCH  12  15
ENDBRANCH  11  12
ENDBRANCH   1  11
TORSDOF 4
REMARK  Name = ../refined-set-2016/2fdp/2fdp_pocket.pdb
REMARK  241 active torsions:
REMARK  status: ('A' for Active; 'I' for Inactive)
REMARK    1  A    between atoms: _1  and  _3
REMARK    2  A    between atoms: _3  and  _4
REMARK    3  A    between atoms: _3  and  _6
REMARK    4  A    between atoms: _6  and  _7
REMARK    5  A    between atoms: _7  and  _8
REMARK    6  A    between atoms: _8  and  _9
REMARK    7  A    between atoms: _9  and  _10
REMARK    8  A    between atoms: _14  and  _16
REMARK    9  A    between atoms: _16  and  _17
REMARK   10  A    between atoms: _16  and  _19
REMARK   11  A    between atoms: _19  and  _20
REMARK   12  A    between atoms: _22  and  _24
REMARK   13  A    between atoms: _24  and  _25
REMARK   14  A    between atoms: _27  and  _29
REMARK   15  A    between atoms: _29  and  _30
REMARK   16  A    between atoms: _29  and  _32
REMARK   17  A    between atoms: _32  and  _33
REMARK   18  A    between atoms: _33  and  _34
REMARK   19  A    between atoms: _39  and  _41
REMARK   20  A    between atoms: _41  and  _42
REMARK   21  A    between atoms: _44  and  _46
REMARK   22  A    between atoms: _46  and  _47
REMARK   23  A    between atoms: _46  and  _49
REMARK   24  A    between atoms: _49  and  _50
REMARK   25  A    between atoms: _55  and  _56
REMARK   26  A    between atoms: _58  and  _60
REMARK   27  A    between atoms: _60  and  _61
REMARK   28  A    between atoms: _60  and  _63
REMARK   29  A    between atoms: _63  and  _64
REMARK   30  A    between atoms: _67  and  _69
REMARK   31  A    between atoms: _69  and  _70
REMARK   32  A    between atoms: _69  and  _72
REMARK   33  A    between atoms: _75  and  _77
REMARK   34  A    between atoms: _77  and  _78
REMARK   35  A    between atoms: _77  and  _80
REMARK   36  A    between atoms: _80  and  _81
REMARK   37  A    between atoms: _84  and  _86
REMARK   38  A    between atoms: _86  and  _87
REMARK   39  A    between atoms: _86  and  _89
REMARK   40  A    between atoms: _89  and  _90
REMARK   41  A    between atoms: _93  and  _95
REMARK   42  A    between atoms: _95  and  _96
REMARK   43  A    between atoms: _98  and  _100
REMARK   44  A    between atoms: _100  and  _101
REMARK   45  A    between atoms: _100  and  _103
REMARK   46  A    between atoms: _103  and  _104
REMARK   47  A    between atoms: _106  and  _108
REMARK   48  A    between atoms: _108  and  _109
REMARK   49  A    between atoms: _108  and  _111
REMARK   50  A    between atoms: _111  and  _112
REMARK   51  A    between atoms: _114  and  _116
REMARK   52  A    between atoms: _116  and  _117
REMARK   53  A    between atoms: _116  and  _119
REMARK   54  A    between atoms: _119  and  _120
REMARK   55  A    between atoms: _125  and  _127
REMARK   56  A    between atoms: _127  and  _128
REMARK   57  A    between atoms: _127  and  _130
REMARK   58  A    between atoms: _130  and  _131
REMARK   59  A    between atoms: _136  and  _137
REMARK   60  A    between atoms: _139  and  _141
REMARK   61  A    between atoms: _141  and  _142
REMARK   62  A    between atoms: _141  and  _144
REMARK   63  A    between atoms: _148  and  _149
REMARK   64  A    between atoms: _154  and  _156
REMARK   65  A    between atoms: _156  and  _157
REMARK   66  A    between atoms: _156  and  _159
REMARK   67  A    between atoms: _159  and  _160
REMARK   68  A    between atoms: _165  and  _166
REMARK   69  A    between atoms: _168  and  _170
REMARK   70  A    between atoms: _170  and  _171
REMARK   71  A    between atoms: _170  and  _173
REMARK   72  A    between atoms: _173  and  _174
REMARK   73  A    between atoms: _177  and  _179
REMARK   74  A    between atoms: _179  and  _180
REMARK   75  A    between atoms: _179  and  _182
REMARK   76  A    between atoms: _182  and  _183
REMARK   77  A    between atoms: _183  and  _184
REMARK   78  A    between atoms: _189  and  _191
REMARK   79  A    between atoms: _191  and  _192
REMARK   80  A    between atoms: _194  and  _196
REMARK   81  A    between atoms: _196  and  _197
REMARK   82  A    between atoms: _196  and  _199
REMARK   83  A    between atoms: _199  and  _200
REMARK   84  A    between atoms: _200  and  _201
REMARK   85  A    between atoms: _201  and  _202
REMARK   86  A    between atoms: _202  and  _203
REMARK   87  A    between atoms: _207  and  _209
REMARK   88  A    between atoms: _209  and  _210
REMARK   89  A    between atoms: _209  and  _212
REMARK   90  A    between atoms: _212  and  _213
REMARK   91  A    between atoms: _223  and  _225
REMARK   92  A    between atoms: _225  and  _226
REMARK   93  A    between atoms: _225  and  _228
REMARK   94  A    between atoms: _228  and  _229
REMARK   95  A    between atoms: _232  and  _234
REMARK   96  A    between atoms: _234  and  _235
REMARK   97  A    between atoms: _234  and  _237
REMARK   98  A    between atoms: _237  and  _238
REMARK   99  A    between atoms: _238  and  _239
REMARK  100  A    between atoms: _239  and  _240
REMARK  101  A    between atoms: _240  and  _241
REMARK  102  A    between atoms: _245  and  _247
REMARK  103  A    between atoms: _247  and  _248
REMARK  104  A    between atoms: _247  and  _250
REMARK  105  A    between atoms: _250  and  _251
REMARK  106  A    between atoms: _257  and  _259
REMARK  107  A    between atoms: _259  and  _260
REMARK  108  A    between atoms: _259  and  _262
REMARK  109  A    between atoms: _262  and  _263
REMARK  110  A    between atoms: _269  and  _271
REMARK  111  A    between atoms: _271  and  _272
REMARK  112  A    between atoms: _271  and  _274
REMARK  113  A    between atoms: _274  and  _275
REMARK  114  A    between atoms: _278  and  _280
REMARK  115  A    between atoms: _280  and  _281
REMARK  116  A    between atoms: _280  and  _283
REMARK  117  A    between atoms: _283  and  _284
REMARK  118  A    between atoms: _286  and  _288
REMARK  119  A    between atoms: _288  and  _289
REMARK  120  A    between atoms: _288  and  _291
REMARK  121  A    between atoms: _291  and  _292
REMARK  122  A    between atoms: _302  and  _304
REMARK  123  A    between atoms: _304  and  _305
REMARK  124  A    between atoms: _307  and  _309
REMARK  125  A    between atoms: _309  and  _310
REMARK  126  A    between atoms: _309  and  _312
REMARK  127  A    between atoms: _312  and  _313
REMARK  128  A    between atoms: _316  and  _318
REMARK  129  A    between atoms: _318  and  _319
REMARK  130  A    between atoms: _318  and  _321
REMARK  131  A    between atoms: _321  and  _322
REMARK  132  A    between atoms: _325  and  _327
REMARK  133  A    between atoms: _327  and  _328
REMARK  134  A    between atoms: _330  and  _332
REMARK  135  A    between atoms: _332  and  _333
REMARK  136  A    between atoms: _336  and  _338
REMARK  137  A    between atoms: _338  and  _339
REMARK  138  A    between atoms: _338  and  _341
REMARK  139  A    between atoms: _341  and  _342
REMARK  140  A    between atoms: _347  and  _348
REMARK  141  A    between atoms: _350  and  _352
REMARK  142  A    between atoms: _352  and  _353
REMARK  143  A    between atoms: _352  and  _355
REMARK  144  A    between atoms: _355  and  _356
REMARK  145  A    between atoms: _356  and  _357
REMARK  146  A    between atoms: _360  and  _362
REMARK  147  A    between atoms: _362  and  _363
REMARK  148  A    between atoms: _362  and  _365
REMARK  149  A    between atoms: _365  and  _366
REMARK  150  A    between atoms: _369  and  _371
REMARK  151  A    between atoms: _371  and  _372
REMARK  152  A    between atoms: _375  and  _377
REMARK  153  A    between atoms: _377  and  _378
REMARK  154  A    between atoms: _377  and  _380
REMARK  155  A    between atoms: _380  and  _381
REMARK  156  A    between atoms: _381  and  _382
REMARK  157  A    between atoms: _382  and  _383
REMARK  158  A    between atoms: _393  and  _394
REMARK  159  A    between atoms: _399  and  _401
REMARK  160  A    between atoms: _401  and  _402
REMARK  161  A    between atoms: _401  and  _404
REMARK  162  A    between atoms: _404  and  _405
REMARK  163  A    between atoms: _415  and  _417
REMARK  164  A    between atoms: _417  and  _418
REMARK  165  A    between atoms: _417  and  _420
REMARK  166  A    between atoms: _420  and  _421
REMARK  167  A    between atoms: _426  and  _427
REMARK  168  A    between atoms: _429  and  _431
REMARK  169  A    between atoms: _431  and  _432
REMARK  170  A    between atoms: _431  and  _434
REMARK  171  A    between atoms: _434  and  _435
REMARK  172  A    between atoms: _435  and  _436
REMARK  173  A    between atoms: _436  and  _437
REMARK  174  A    between atoms: _437  and  _438
REMARK  175  A    between atoms: _442  and  _444
REMARK  176  A    between atoms: _444  and  _445
REMARK  177  A    between atoms: _444  and  _447
REMARK  178  A    between atoms: _447  and  _448
REMARK  179  A    between atoms: _451  and  _453
REMARK  180  A    between atoms: _453  and  _454
REMARK  181  A    between atoms: _453  and  _456
REMARK  182  A    between atoms: _459  and  _461
REMARK  183  A    between atoms: _461  and  _462
REMARK  184  A    between atoms: _461  and  _464
REMARK  185  A    between atoms: _464  and  _465
REMARK  186  A    between atoms: _468  and  _470
REMARK  187  A    between atoms: _470  and  _471
REMARK  188  A    between atoms: _470  and  _473
REMARK  189  A    between atoms: _473  and  _474
REMARK  190  A    between atoms: _476  and  _478
REMARK  191  A    between atoms: _478  and  _479
REMARK  192  A    between atoms: _481  and  _483
REMARK  193  A    between atoms: _483  and  _484
REMARK  194  A    between atoms: _483  and  _486
REMARK  195  A    between atoms: _486  and  _487
REMARK  196  A    between atoms: _490  and  _492
REMARK  197  A    between atoms: _492  and  _493
REMARK  198  A    between atoms: _492  and  _495
REMARK  199  A    between atoms: _495  and  _496
REMARK  200  A    between atoms: _499  and  _501
REMARK  201  A    between atoms: _501  and  _502
REMARK  202  A    between atoms: _501  and  _504
REMARK  203  A    between atoms: _504  and  _505
REMARK  204  A    between atoms: _510  and  _512
REMARK  205  A    between atoms: _512  and  _513
REMARK  206  A    between atoms: _512  and  _515
REMARK  207  A    between atoms: _515  and  _516
REMARK  208  A    between atoms: _516  and  _517
REMARK  209  A    between atoms: _517  and  _518
REMARK  210  A    between atoms: _527  and  _529
REMARK  211  A    between atoms: _529  and  _530
REMARK  212  A    between atoms: _529  and  _532
REMARK  213  A    between atoms: _532  and  _533
REMARK  214  A    between atoms: _533  and  _534
REMARK  215  A    between atoms: _534  and  _535
REMARK  216  A    between atoms: _544  and  _546
REMARK  217  A    between atoms: _546  and  _547
REMARK  218  A    between atoms: _546  and  _549
REMARK  219  A    between atoms: _549  and  _550
REMARK  220  A    between atoms: _552  and  _554
REMARK  221  A    between atoms: _554  and  _555
REMARK  222  A    between atoms: _554  and  _557
REMARK  223  A    between atoms: _557  and  _558
REMARK  224  A    between atoms: _560  and  _562
REMARK  225  A    between atoms: _562  and  _563
REMARK  226  A    between atoms: _562  and  _565
REMARK  227  A    between atoms: _565  and  _566
REMARK  228  A    between atoms: _569  and  _571
REMARK  229  A    between atoms: _571  and  _572
REMARK  230  A    between atoms: _571  and  _574
REMARK  231  A    between atoms: _574  and  _575
REMARK  232  A    between atoms: _578  and  _580
REMARK  233  A    between atoms: _580  and  _581
REMARK  234  A    between atoms: _580  and  _583
REMARK  235  A    between atoms: _586  and  _588
REMARK  236  A    between atoms: _588  and  _589
REMARK  237  A    between atoms: _591  and  _593
REMARK  238  A    between atoms: _593  and  _594
REMARK  239  A    between atoms: _597  and  _599
REMARK  240  A    between atoms: _599  and  _600
REMARK  241  A    between atoms: _599  and  _602
REMARK                            x       y       z     vdW  Elec       q    Type
REMARK                         _______ _______ _______ _____ _____    ______ ____
ROOT
ATOM      1  C   ILE A   2       5.523 -10.753  44.546  0.00  0.00    +0.241 C 
ATOM      2  O   ILE A   2       5.803 -11.895  44.922  0.00  0.00    -0.273 OA
ATOM      3  N   LEU A   3       5.865 -10.271  43.354  0.00  0.00    -0.297 N 
ATOM      4  H   LEU A   3       5.541  -9.320  43.085  0.00  0.00    +0.150 HD
ENDROOT
BRANCH   1   5
ATOM      5  CA  ILE A   2       4.725  -9.801  45.442  0.00  0.00    +0.148 C 
BRANCH   5   7
ATOM      6  C   GLY A   1       2.332  -9.995  45.894  0.00  0.00    +0.240 C 
ATOM      7  N   ILE A   2       3.569 -10.460  46.044  0.00  0.00    -0.297 N 
ATOM      8  H   ILE A   2       3.718 -11.321  46.608  0.00  0.00    +0.150 HD
ATOM      9  O   GLY A   1       2.060  -9.009  45.208  0.00  0.00    -0.274 OA
BRANCH   6  10
ATOM     10  CA  GLY A   1       1.247 -10.764  46.620  0.00  0.00    +0.169 C 
BRANCH  10  11
ATOM     11  N   GLY A   1      -0.070 -10.155  46.547  0.00  0.00    -0.236 NA
ATOM     12  H   GLY A   1      -0.266  -9.456  45.802  0.00  0.00    +0.142 HD
ENDBRANCH  10  11
ENDBRANCH   6  10
ENDBRANCH   5   7
BRANCH   5  13
ATOM     13  CB  ILE A   2       5.619  -9.145  46.537  0.00  0.00    +0.027 C 
ATOM     14  CG2 ILE A   2       6.267 -10.202  47.448  0.00  0.00    +0.002 C 
BRANCH  13  15
ATOM     15  CG1 ILE A   2       6.656  -8.207  45.907  0.00  0.00    +0.002 C 
ATOM     16  CD1 ILE A   2       7.096  -7.073  46.813  0.00  0.00    +0.000 C 
ENDBRANCH  13  15
ENDBRANCH   5  13
ENDBRANCH   1   5
BRANCH   3  17
ATOM     17  CA  LEU A   3       6.676 -11.028  42.414  0.00  0.00    +0.149 C 
BRANCH  17  18
ATOM     18  C   LEU A   3       8.076 -10.441  42.349  0.00  0.00    +0.241 C 
ATOM     19  N   GLY A   4       9.010 -11.104  43.025  0.00  0.00    -0.296 N 
ATOM     20  H   GLY A   4       8.737 -11.952  43.561  0.00  0.00    +0.150 HD
ATOM     21  O   LEU A   3       8.300  -9.410  41.710  0.00  0.00    -0.273 OA
BRANCH  19  22
ATOM     22  CA  GLY A   4      10.398 -10.682  43.038  0.00  0.00    +0.163 C 
BRANCH  22  23
ATOM     23  C   GLY A   4      11.108 -11.094  41.765  0.00  0.00    +0.229 C 
ATOM     24  O   GLY A   4      11.416 -12.273  41.572  0.00  0.00    -0.286 OA
ENDBRANCH  22  23
ENDBRANCH  19  22
ENDBRANCH  17  18
BRANCH  17  25
ATOM     25  CB  LEU A   3       6.035 -11.034  41.024  0.00  0.00    +0.029 C 
BRANCH  25  26
ATOM     26  CG  LEU A   3       6.735 -11.841  39.931  0.00  0.00    +0.002 C 
ATOM     27  CD2 LEU A   3       6.641 -13.330  40.217  0.00  0.00    +0.000 C 
ATOM     28  CD1 LEU A   3       6.133 -11.511  38.580  0.00  0.00    +0.000 C 
ENDBRANCH  25  26
ENDBRANCH  17  25
ENDBRANCH   3  17
TORSDOF 12
REMARK  Name = ../refined-set-2016/2fdp/2fdp_pocket.pdb
REMARK  241 active torsions:
REMARK  status: ('A' for Active; 'I' for Inactive)
REMARK    1  A    between atoms: _1  and  _3
REMARK    2  A    between atoms: _3  and  _4
REMARK    3  A    between atoms: _3  and  _6
REMARK    4  A    between atoms: _6  and  _7
REMARK    5  A    between atoms: _7  and  _8
REMARK    6  A    between atoms: _8  and  _9
REMARK    7  A    between atoms: _9  and  _10
REMARK    8  A    between atoms: _14  and  _16
REMARK    9  A    between atoms: _16  and  _17
REMARK   10  A    between atoms: _16  and  _19
REMARK   11  A    between atoms: _19  and  _20
REMARK   12  A    between atoms: _22  and  _24
REMARK   13  A    between atoms: _24  and  _25
REMARK   14  A    between atoms: _27  and  _29
REMARK   15  A    between atoms: _29  and  _30
REMARK   16  A    between atoms: _29  and  _32
REMARK   17  A    between atoms: _32  and  _33
REMARK   18  A    between atoms: _33  and  _34
REMARK   19  A    between atoms: _39  and  _41
REMARK   20  A    between atoms: _41  and  _42
REMARK   21  A    between atoms: _44  and  _46
REMARK   22  A    between atoms: _46  and  _47
REMARK   23  A    between atoms: _46  and  _49
REMARK   24  A    between atoms: _49  and  _50
REMARK   25  A    between atoms: _55  and  _56
REMARK   26  A    between atoms: _58  and  _60
REMARK   27  A    between atoms: _60  and  _61
REMARK   28  A    between atoms: _60  and  _63
REMARK   29  A    between atoms: _63  and  _64
REMARK   30  A    between atoms: _67  and  _69
REMARK   31  A    between atoms: _69  and  _70
REMARK   32  A    between atoms: _69  and  _72
REMARK   33  A    between atoms: _75  and  _77
REMARK   34  A    between atoms: _77  and  _78
REMARK   35  A    between atoms: _77  and  _80
REMARK   36  A    between atoms: _80  and  _81
REMARK   37  A    between atoms: _84  and  _86
REMARK   38  A    between atoms: _86  and  _87
REMARK   39  A    between atoms: _86  and  _89
REMARK   40  A    between atoms: _89  and  _90
REMARK   41  A    between atoms: _93  and  _95
REMARK   42  A    between atoms: _95  and  _96
REMARK   43  A    between atoms: _98  and  _100
REMARK   44  A    between atoms: _100  and  _101
REMARK   45  A    between atoms: _100  and  _103
REMARK   46  A    between atoms: _103  and  _104
REMARK   47  A    between atoms: _106  and  _108
REMARK   48  A    between atoms: _108  and  _109
REMARK   49  A    between atoms: _108  and  _111
REMARK   50  A    between atoms: _111  and  _112
REMARK   51  A    between atoms: _114  and  _116
REMARK   52  A    between atoms: _116  and  _117
REMARK   53  A    between atoms: _116  and  _119
REMARK   54  A    between atoms: _119  and  _120
REMARK   55  A    between atoms: _125  and  _127
REMARK   56  A    between atoms: _127  and  _128
REMARK   57  A    between atoms: _127  and  _130
REMARK   58  A    between atoms: _130  and  _131
REMARK   59  A    between atoms: _136  and  _137
REMARK   60  A    between atoms: _139  and  _141
REMARK   61  A    between atoms: _141  and  _142
REMARK   62  A    between atoms: _141  and  _144
REMARK   63  A    between atoms: _148  and  _149
REMARK   64  A    between atoms: _154  and  _156
REMARK   65  A    between atoms: _156  and  _157
REMARK   66  A    between atoms: _156  and  _159
REMARK   67  A    between atoms: _159  and  _160
REMARK   68  A    between atoms: _165  and  _166
REMARK   69  A    between atoms: _168  and  _170
REMARK   70  A    between atoms: _170  and  _171
REMARK   71  A    between atoms: _170  and  _173
REMARK   72  A    between atoms: _173  and  _174
REMARK   73  A    between atoms: _177  and  _179
REMARK   74  A    between atoms: _179  and  _180
REMARK   75  A    between atoms: _179  and  _182
REMARK   76  A    between atoms: _182  and  _183
REMARK   77  A    between atoms: _183  and  _184
REMARK   78  A    between atoms: _189  and  _191
REMARK   79  A    between atoms: _191  and  _192
REMARK   80  A    between atoms: _194  and  _196
REMARK   81  A    between atoms: _196  and  _197
REMARK   82  A    between atoms: _196  and  _199
REMARK   83  A    between atoms: _199  and  _200
REMARK   84  A    between atoms: _200  and  _201
REMARK   85  A    between atoms: _201  and  _202
REMARK   86  A    between atoms: _202  and  _203
REMARK   87  A    between atoms: _207  and  _209
REMARK   88  A    between atoms: _209  and  _210
REMARK   89  A    between atoms: _209  and  _212
REMARK   90  A    between atoms: _212  and  _213
REMARK   91  A    between atoms: _223  and  _225
REMARK   92  A    between atoms: _225  and  _226
REMARK   93  A    between atoms: _225  and  _228
REMARK   94  A    between atoms: _228  and  _229
REMARK   95  A    between atoms: _232  and  _234
REMARK   96  A    between atoms: _234  and  _235
REMARK   97  A    between atoms: _234  and  _237
REMARK   98  A    between atoms: _237  and  _238
REMARK   99  A    between atoms: _238  and  _239
REMARK  100  A    between atoms: _239  and  _240
REMARK  101  A    between atoms: _240  and  _241
REMARK  102  A    between atoms: _245  and  _247
REMARK  103  A    between atoms: _247  and  _248
REMARK  104  A    between atoms: _247  and  _250
REMARK  105  A    between atoms: _250  and  _251
REMARK  106  A    between atoms: _257  and  _259
REMARK  107  A    between atoms: _259  and  _260
REMARK  108  A    between atoms: _259  and  _262
REMARK  109  A    between atoms: _262  and  _263
REMARK  110  A    between atoms: _269  and  _271
REMARK  111  A    between atoms: _271  and  _272
REMARK  112  A    between atoms: _271  and  _274
REMARK  113  A    between atoms: _274  and  _275
REMARK  114  A    between atoms: _278  and  _280
REMARK  115  A    between atoms: _280  and  _281
REMARK  116  A    between atoms: _280  and  _283
REMARK  117  A    between atoms: _283  and  _284
REMARK  118  A    between atoms: _286  and  _288
REMARK  119  A    between atoms: _288  and  _289
REMARK  120  A    between atoms: _288  and  _291
REMARK  121  A    between atoms: _291  and  _292
REMARK  122  A    between atoms: _302  and  _304
REMARK  123  A    between atoms: _304  and  _305
REMARK  124  A    between atoms: _307  and  _309
REMARK  125  A    between atoms: _309  and  _310
REMARK  126  A    between atoms: _309  and  _312
REMARK  127  A    between atoms: _312  and  _313
REMARK  128  A    between atoms: _316  and  _318
REMARK  129  A    between atoms: _318  and  _319
REMARK  130  A    between atoms: _318  and  _321
REMARK  131  A    between atoms: _321  and  _322
REMARK  132  A    between atoms: _325  and  _327
REMARK  133  A    between atoms: _327  and  _328
REMARK  134  A    between atoms: _330  and  _332
REMARK  135  A    between atoms: _332  and  _333
REMARK  136  A    between atoms: _336  and  _338
REMARK  137  A    between atoms: _338  and  _339
REMARK  138  A    between atoms: _338  and  _341
REMARK  139  A    between atoms: _341  and  _342
REMARK  140  A    between atoms: _347  and  _348
REMARK  141  A    between atoms: _350  and  _352
REMARK  142  A    between atoms: _352  and  _353
REMARK  143  A    between atoms: _352  and  _355
REMARK  144  A    between atoms: _355  and  _356
REMARK  145  A    between atoms: _356  and  _357
REMARK  146  A    between atoms: _360  and  _362
REMARK  147  A    between atoms: _362  and  _363
REMARK  148  A    between atoms: _362  and  _365
REMARK  149  A    between atoms: _365  and  _366
REMARK  150  A    between atoms: _369  and  _371
REMARK  151  A    between atoms: _371  and  _372
REMARK  152  A    between atoms: _375  and  _377
REMARK  153  A    between atoms: _377  and  _378
REMARK  154  A    between atoms: _377  and  _380
REMARK  155  A    between atoms: _380  and  _381
REMARK  156  A    between atoms: _381  and  _382
REMARK  157  A    between atoms: _382  and  _383
REMARK  158  A    between atoms: _393  and  _394
REMARK  159  A    between atoms: _399  and  _401
REMARK  160  A    between atoms: _401  and  _402
REMARK  161  A    between atoms: _401  and  _404
REMARK  162  A    between atoms: _404  and  _405
REMARK  163  A    between atoms: _415  and  _417
REMARK  164  A    between atoms: _417  and  _418
REMARK  165  A    between atoms: _417  and  _420
REMARK  166  A    between atoms: _420  and  _421
REMARK  167  A    between atoms: _426  and  _427
REMARK  168  A    between atoms: _429  and  _431
REMARK  169  A    between atoms: _431  and  _432
REMARK  170  A    between atoms: _431  and  _434
REMARK  171  A    between atoms: _434  and  _435
REMARK  172  A    between atoms: _435  and  _436
REMARK  173  A    between atoms: _436  and  _437
REMARK  174  A    between atoms: _437  and  _438
REMARK  175  A    between atoms: _442  and  _444
REMARK  176  A    between atoms: _444  and  _445
REMARK  177  A    between atoms: _444  and  _447
REMARK  178  A    between atoms: _447  and  _448
REMARK  179  A    between atoms: _451  and  _453
REMARK  180  A    between atoms: _453  and  _454
REMARK  181  A    between atoms: _453  and  _456
REMARK  182  A    between atoms: _459  and  _461
REMARK  183  A    between atoms: _461  and  _462
REMARK  184  A    between atoms: _461  and  _464
REMARK  185  A    between atoms: _464  and  _465
REMARK  186  A    between atoms: _468  and  _470
REMARK  187  A    between atoms: _470  and  _471
REMARK  188  A    between atoms: _470  and  _473
REMARK  189  A    between atoms: _473  and  _474
REMARK  190  A    between atoms: _476  and  _478
REMARK  191  A    between atoms: _478  and  _479
REMARK  192  A    between atoms: _481  and  _483
REMARK  193  A    between atoms: _483  and  _484
REMARK  194  A    between atoms: _483  and  _486
REMARK  195  A    between atoms: _486  and  _487
REMARK  196  A    between atoms: _490  and  _492
REMARK  197  A    between atoms: _492  and  _493
REMARK  198  A    between atoms: _492  and  _495
REMARK  199  A    between atoms: _495  and  _496
REMARK  200  A    between atoms: _499  and  _501
REMARK  201  A    between atoms: _501  and  _502
REMARK  202  A    between atoms: _501  and  _504
REMARK  203  A    between atoms: _504  and  _505
REMARK  204  A    between atoms: _510  and  _512
REMARK  205  A    between atoms: _512  and  _513
REMARK  206  A    between atoms: _512  and  _515
REMARK  207  A    between atoms: _515  and  _516
REMARK  208  A    between atoms: _516  and  _517
REMARK  209  A    between atoms: _517  and  _518
REMARK  210  A    between atoms: _527  and  _529
REMARK  211  A    between atoms: _529  and  _530
REMARK  212  A    between atoms: _529  and  _532
REMARK  213  A    between atoms: _532  and  _533
REMARK  214  A    between atoms: _533  and  _534
REMARK  215  A    between atoms: _534  and  _535
REMARK  216  A    between atoms: _544  and  _546
REMARK  217  A    between atoms: _546  and  _547
REMARK  218  A    between atoms: _546  and  _549
REMARK  219  A    between atoms: _549  and  _550
REMARK  220  A    between atoms: _552  and  _554
REMARK  221  A    between atoms: _554  and  _555
REMARK  222  A    between atoms: _554  and  _557
REMARK  223  A    between atoms: _557  and  _558
REMARK  224  A    between atoms: _560  and  _562
REMARK  225  A    between atoms: _562  and  _563
REMARK  226  A    between atoms: _562  and  _565
REMARK  227  A    between atoms: _565  and  _566
REMARK  228  A    between atoms: _569  and  _571
REMARK  229  A    between atoms: _571  and  _572
REMARK  230  A    between atoms: _571  and  _574
REMARK  231  A    between atoms: _574  and  _575
REMARK  232  A    between atoms: _578  and  _580
REMARK  233  A    between atoms: _580  and  _581
REMARK  234  A    between atoms: _580  and  _583
REMARK  235  A    between atoms: _586  and  _588
REMARK  236  A    between atoms: _588  and  _589
REMARK  237  A    between atoms: _591  and  _593
REMARK  238  A    between atoms: _593  and  _594
REMARK  239  A    between atoms: _597  and  _599
REMARK  240  A    between atoms: _599  and  _600
REMARK  241  A    between atoms: _599  and  _602
REMARK                            x       y       z     vdW  Elec       q    Type
REMARK                         _______ _______ _______ _____ _____    ______ ____
ROOT
ATOM      1  CA  TYR A   2      18.278 -12.582  40.990  0.00  0.00    +0.141 C 
ENDROOT
BRANCH   1   3
ATOM      2  C   ALA A   1      16.190 -11.301  40.833  0.00  0.00    +0.238 C 
ATOM      3  N   TYR A   2      17.503 -11.339  41.054  0.00  0.00    -0.298 N 
ATOM      4  H   TYR A   2      17.998 -10.453  41.281  0.00  0.00    +0.150 HD
ATOM      5  O   ALA A   1      15.493 -12.317  40.743  0.00  0.00    -0.274 OA
BRANCH   2   6
ATOM      6  CA  ALA A   1      15.559  -9.906  40.698  0.00  0.00    +0.145 C 
ATOM      7  CB  ALA A   1      16.016  -8.975  41.823  0.00  0.00    +0.028 C 
BRANCH   6   8
ATOM      8  N   ALA A   1      14.097  -9.964  40.632  0.00  0.00    -0.238 NA
ATOM      9  H   ALA A   1      13.541  -9.715  41.475  0.00  0.00    +0.142 HD
ENDBRANCH   6   8
ENDBRANCH   2   6
ENDBRANCH   1   3
BRANCH   1  10
ATOM     10  C   TYR A   2      18.351 -13.350  42.312  0.00  0.00    +0.227 C 
ATOM     11  O   TYR A   2      18.092 -12.797  43.381  0.00  0.00    -0.286 OA
ENDBRANCH   1  10
BRANCH   1  12
ATOM     12  CB  TYR A   2      19.688 -12.294  40.466  0.00  0.00    +0.054 C 
BRANCH  12  13
ATOM     13  CG  TYR A   2      19.714 -11.712  39.069  0.00  0.00    -0.020 A 
ATOM     14  CD2 TYR A   2      19.757 -10.333  38.870  0.00  0.00    -0.001 A 
ATOM     15  CE2 TYR A   2      19.781  -9.793  37.587  0.00  0.00    +0.036 A 
ATOM     16  CZ  TYR A   2      19.755 -10.637  36.490  0.00  0.00    +0.134 A 
ATOM     17  CE1 TYR A   2      19.708 -12.010  36.661  0.00  0.00    +0.036 A 
ATOM     18  CD1 TYR A   2      19.688 -12.540  37.946  0.00  0.00    -0.001 A 
BRANCH  16  19
ATOM     19  OH  TYR A   2      19.778 -10.106  35.224  0.00  0.00    -0.506 OA
ATOM     20  HH  TYR A   2      19.811  -9.118  35.282  0.00  0.00    +0.292 HD
ENDBRANCH  16  19
ENDBRANCH  12  13
ENDBRANCH   1  12
TORSDOF 7
REMARK  Name = ../refined-set-2016/2fdp/2fdp_pocket.pdb
REMARK  241 active torsions:
REMARK  status: ('A' for Active; 'I' for Inactive)
REMARK    1  A    between atoms: _1  and  _3
REMARK    2  A    between atoms: _3  and  _4
REMARK    3  A    between atoms: _3  and  _6
REMARK    4  A    between atoms: _6  and  _7
REMARK    5  A    between atoms: _7  and  _8
REMARK    6  A    between atoms: _8  and  _9
REMARK    7  A    between atoms: _9  and  _10
REMARK    8  A    between atoms: _14  and  _16
REMARK    9  A    between atoms: _16  and  _17
REMARK   10  A    between atoms: _16  and  _19
REMARK   11  A    between atoms: _19  and  _20
REMARK   12  A    between atoms: _22  and  _24
REMARK   13  A    between atoms: _24  and  _25
REMARK   14  A    between atoms: _27  and  _29
REMARK   15  A    between atoms: _29  and  _30
REMARK   16  A    between atoms: _29  and  _32
REMARK   17  A    between atoms: _32  and  _33
REMARK   18  A    between atoms: _33  and  _34
REMARK   19  A    between atoms: _39  and  _41
REMARK   20  A    between atoms: _41  and  _42
REMARK   21  A    between atoms: _44  and  _46
REMARK   22  A    between atoms: _46  and  _47
REMARK   23  A    between atoms: _46  and  _49
REMARK   24  A    between atoms: _49  and  _50
REMARK   25  A    between atoms: _55  and  _56
REMARK   26  A    between atoms: _58  and  _60
REMARK   27  A    between atoms: _60  and  _61
REMARK   28  A    between atoms: _60  and  _63
REMARK   29  A    between atoms: _63  and  _64
REMARK   30  A    between atoms: _67  and  _69
REMARK   31  A    between atoms: _69  and  _70
REMARK   32  A    between atoms: _69  and  _72
REMARK   33  A    between atoms: _75  and  _77
REMARK   34  A    between atoms: _77  and  _78
REMARK   35  A    between atoms: _77  and  _80
REMARK   36  A    between atoms: _80  and  _81
REMARK   37  A    between atoms: _84  and  _86
REMARK   38  A    between atoms: _86  and  _87
REMARK   39  A    between atoms: _86  and  _89
REMARK   40  A    between atoms: _89  and  _90
REMARK   41  A    between atoms: _93  and  _95
REMARK   42  A    between atoms: _95  and  _96
REMARK   43  A    between atoms: _98  and  _100
REMARK   44  A    between atoms: _100  and  _101
REMARK   45  A    between atoms: _100  and  _103
REMARK   46  A    between atoms: _103  and  _104
REMARK   47  A    between atoms: _106  and  _108
REMARK   48  A    between atoms: _108  and  _109
REMARK   49  A    between atoms: _108  and  _111
REMARK   50  A    between atoms: _111  and  _112
REMARK   51  A    between atoms: _114  and  _116
REMARK   52  A    between atoms: _116  and  _117
REMARK   53  A    between atoms: _116  and  _119
REMARK   54  A    between atoms: _119  and  _120
REMARK   55  A    between atoms: _125  and  _127
REMARK   56  A    between atoms: _127  and  _128
REMARK   57  A    between atoms: _127  and  _130
REMARK   58  A    between atoms: _130  and  _131
REMARK   59  A    between atoms: _136  and  _137
REMARK   60  A    between atoms: _139  and  _141
REMARK   61  A    between atoms: _141  and  _142
REMARK   62  A    between atoms: _141  and  _144
REMARK   63  A    between atoms: _148  and  _149
REMARK   64  A    between atoms: _154  and  _156
REMARK   65  A    between atoms: _156  and  _157
REMARK   66  A    between atoms: _156  and  _159
REMARK   67  A    between atoms: _159  and  _160
REMARK   68  A    between atoms: _165  and  _166
REMARK   69  A    between atoms: _168  and  _170
REMARK   70  A    between atoms: _170  and  _171
REMARK   71  A    between atoms: _170  and  _173
REMARK   72  A    between atoms: _173  and  _174
REMARK   73  A    between atoms: _177  and  _179
REMARK   74  A    between atoms: _179  and  _180
REMARK   75  A    between atoms: _179  and  _182
REMARK   76  A    between atoms: _182  and  _183
REMARK   77  A    between atoms: _183  and  _184
REMARK   78  A    between atoms: _189  and  _191
REMARK   79  A    between atoms: _191  and  _192
REMARK   80  A    between atoms: _194  and  _196
REMARK   81  A    between atoms: _196  and  _197
REMARK   82  A    between atoms: _196  and  _199
REMARK   83  A    between atoms: _199  and  _200
REMARK   84  A    between atoms: _200  and  _201
REMARK   85  A    between atoms: _201  and  _202
REMARK   86  A    between atoms: _202  and  _203
REMARK   87  A    between atoms: _207  and  _209
REMARK   88  A    between atoms: _209  and  _210
REMARK   89  A    between atoms: _209  and  _212
REMARK   90  A    between atoms: _212  and  _213
REMARK   91  A    between atoms: _223  and  _225
REMARK   92  A    between atoms: _225  and  _226
REMARK   93  A    between atoms: _225  and  _228
REMARK   94  A    between atoms: _228  and  _229
REMARK   95  A    between atoms: _232  and  _234
REMARK   96  A    between atoms: _234  and  _235
REMARK   97  A    between atoms: _234  and  _237
REMARK   98  A    between atoms: _237  and  _238
REMARK   99  A    between atoms: _238  and  _239
REMARK  100  A    between atoms: _239  and  _240
REMARK  101  A    between atoms: _240  and  _241
REMARK  102  A    between atoms: _245  and  _247
REMARK  103  A    between atoms: _247  and  _248
REMARK  104  A    between atoms: _247  and  _250
REMARK  105  A    between atoms: _250  and  _251
REMARK  106  A    between atoms: _257  and  _259
REMARK  107  A    between atoms: _259  and  _260
REMARK  108  A    between atoms: _259  and  _262
REMARK  109  A    between atoms: _262  and  _263
REMARK  110  A    between atoms: _269  and  _271
REMARK  111  A    between atoms: _271  and  _272
REMARK  112  A    between atoms: _271  and  _274
REMARK  113  A    between atoms: _274  and  _275
REMARK  114  A    between atoms: _278  and  _280
REMARK  115  A    between atoms: _280  and  _281
REMARK  116  A    between atoms: _280  and  _283
REMARK  117  A    between atoms: _283  and  _284
REMARK  118  A    between atoms: _286  and  _288
REMARK  119  A    between atoms: _288  and  _289
REMARK  120  A    between atoms: _288  and  _291
REMARK  121  A    between atoms: _291  and  _292
REMARK  122  A    between atoms: _302  and  _304
REMARK  123  A    between atoms: _304  and  _305
REMARK  124  A    between atoms: _307  and  _309
REMARK  125  A    between atoms: _309  and  _310
REMARK  126  A    between atoms: _309  and  _312
REMARK  127  A    between atoms: _312  and  _313
REMARK  128  A    between atoms: _316  and  _318
REMARK  129  A    between atoms: _318  and  _319
REMARK  130  A    between atoms: _318  and  _321
REMARK  131  A    between atoms: _321  and  _322
REMARK  132  A    between atoms: _325  and  _327
REMARK  133  A    between atoms: _327  and  _328
REMARK  134  A    between atoms: _330  and  _332
REMARK  135  A    between atoms: _332  and  _333
REMARK  136  A    between atoms: _336  and  _338
REMARK  137  A    between atoms: _338  and  _339
REMARK  138  A    between atoms: _338  and  _341
REMARK  139  A    between atoms: _341  and  _342
REMARK  140  A    between atoms: _347  and  _348
REMARK  141  A    between atoms: _350  and  _352
REMARK  142  A    between atoms: _352  and  _353
REMARK  143  A    between atoms: _352  and  _355
REMARK  144  A    between atoms: _355  and  _356
REMARK  145  A    between atoms: _356  and  _357
REMARK  146  A    between atoms: _360  and  _362
REMARK  147  A    between atoms: _362  and  _363
REMARK  148  A    between atoms: _362  and  _365
REMARK  149  A    between atoms: _365  and  _366
REMARK  150  A    between atoms: _369  and  _371
REMARK  151  A    between atoms: _371  and  _372
REMARK  152  A    between atoms: _375  and  _377
REMARK  153  A    between atoms: _377  and  _378
REMARK  154  A    between atoms: _377  and  _380
REMARK  155  A    between atoms: _380  and  _381
REMARK  156  A    between atoms: _381  and  _382
REMARK  157  A    between atoms: _382  and  _383
REMARK  158  A    between atoms: _393  and  _394
REMARK  159  A    between atoms: _399  and  _401
REMARK  160  A    between atoms: _401  and  _402
REMARK  161  A    between atoms: _401  and  _404
REMARK  162  A    between atoms: _404  and  _405
REMARK  163  A    between atoms: _415  and  _417
REMARK  164  A    between atoms: _417  and  _418
REMARK  165  A    between atoms: _417  and  _420
REMARK  166  A    between atoms: _420  and  _421
REMARK  167  A    between atoms: _426  and  _427
REMARK  168  A    between atoms: _429  and  _431
REMARK  169  A    between atoms: _431  and  _432
REMARK  170  A    between atoms: _431  and  _434
REMARK  171  A    between atoms: _434  and  _435
REMARK  172  A    between atoms: _435  and  _436
REMARK  173  A    between atoms: _436  and  _437
REMARK  174  A    between atoms: _437  and  _438
REMARK  175  A    between atoms: _442  and  _444
REMARK  176  A    between atoms: _444  and  _445
REMARK  177  A    between atoms: _444  and  _447
REMARK  178  A    between atoms: _447  and  _448
REMARK  179  A    between atoms: _451  and  _453
REMARK  180  A    between atoms: _453  and  _454
REMARK  181  A    between atoms: _453  and  _456
REMARK  182  A    between atoms: _459  and  _461
REMARK  183  A    between atoms: _461  and  _462
REMARK  184  A    between atoms: _461  and  _464
REMARK  185  A    between atoms: _464  and  _465
REMARK  186  A    between atoms: _468  and  _470
REMARK  187  A    between atoms: _470  and  _471
REMARK  188  A    between atoms: _470  and  _473
REMARK  189  A    between atoms: _473  and  _474
REMARK  190  A    between atoms: _476  and  _478
REMARK  191  A    between atoms: _478  and  _479
REMARK  192  A    between atoms: _481  and  _483
REMARK  193  A    between atoms: _483  and  _484
REMARK  194  A    between atoms: _483  and  _486
REMARK  195  A    between atoms: _486  and  _487
REMARK  196  A    between atoms: _490  and  _492
REMARK  197  A    between atoms: _492  and  _493
REMARK  198  A    between atoms: _492  and  _495
REMARK  199  A    between atoms: _495  and  _496
REMARK  200  A    between atoms: _499  and  _501
REMARK  201  A    between atoms: _501  and  _502
REMARK  202  A    between atoms: _501  and  _504
REMARK  203  A    between atoms: _504  and  _505
REMARK  204  A    between atoms: _510  and  _512
REMARK  205  A    between atoms: _512  and  _513
REMARK  206  A    between atoms: _512  and  _515
REMARK  207  A    between atoms: _515  and  _516
REMARK  208  A    between atoms: _516  and  _517
REMARK  209  A    between atoms: _517  and  _518
REMARK  210  A    between atoms: _527  and  _529
REMARK  211  A    between atoms: _529  and  _530
REMARK  212  A    between atoms: _529  and  _532
REMARK  213  A    between atoms: _532  and  _533
REMARK  214  A    between atoms: _533  and  _534
REMARK  215  A    between atoms: _534  and  _535
REMARK  216  A    between atoms: _544  and  _546
REMARK  217  A    between atoms: _546  and  _547
REMARK  218  A    between atoms: _546  and  _549
REMARK  219  A    between atoms: _549  and  _550
REMARK  220  A    between atoms: _552  and  _554
REMARK  221  A    between atoms: _554  and  _555
REMARK  222  A    between atoms: _554  and  _557
REMARK  223  A    between atoms: _557  and  _558
REMARK  224  A    between atoms: _560  and  _562
REMARK  225  A    between atoms: _562  and  _563
REMARK  226  A    between atoms: _562  and  _565
REMARK  227  A    between atoms: _565  and  _566
REMARK  228  A    between atoms: _569  and  _571
REMARK  229  A    between atoms: _571  and  _572
REMARK  230  A    between atoms: _571  and  _574
REMARK  231  A    between atoms: _574  and  _575
REMARK  232  A    between atoms: _578  and  _580
REMARK  233  A    between atoms: _580  and  _581
REMARK  234  A    between atoms: _580  and  _583
REMARK  235  A    between atoms: _586  and  _588
REMARK  236  A    between atoms: _588  and  _589
REMARK  237  A    between atoms: _591  and  _593
REMARK  238  A    between atoms: _593  and  _594
REMARK  239  A    between atoms: _597  and  _599
REMARK  240  A    between atoms: _599  and  _600
REMARK  241  A    between atoms: _599  and  _602
REMARK                            x       y       z     vdW  Elec       q    Type
REMARK                         _______ _______ _______ _____ _____    ______ ____
ROOT
ATOM      1  C   ALA A   3      16.655 -14.782  49.058  0.00  0.00    +0.241 C 
ATOM      2  N   ARG A   4      15.553 -14.840  49.801  0.00  0.00    -0.297 N 
ATOM      3  H   ARG A   4      14.659 -14.486  49.404  0.00  0.00    +0.150 HD
ATOM      4  O   ALA A   3      17.761 -15.145  49.464  0.00  0.00    -0.273 OA
ENDROOT
BRANCH   1   5
ATOM      5  CA  ALA A   3      16.488 -14.222  47.645  0.00  0.00    +0.149 C 
ATOM      6  CB  ALA A   3      16.177 -15.337  46.663  0.00  0.00    +0.031 C 
BRANCH   5   9
ATOM      7  C   ILE A   2      17.977 -12.286  47.696  0.00  0.00    +0.241 C 
ATOM      8  O   ILE A   2      17.214 -11.648  48.428  0.00  0.00    -0.273 OA
ATOM      9  N   ALA A   3      17.690 -13.501  47.235  0.00  0.00    -0.297 N 
ATOM     10  H   ALA A   3      18.342 -13.951  46.562  0.00  0.00    +0.150 HD
BRANCH   7  11
ATOM     11  CA  ILE A   2      19.330 -11.698  47.273  0.00  0.00    +0.148 C 
BRANCH  11  14
ATOM     12  C   GLU A   1      21.094 -13.147  46.392  0.00  0.00    +0.238 C 
ATOM     13  O   GLU A   1      21.612 -13.273  47.503  0.00  0.00    -0.274 OA
ATOM     14  N   ILE A   2      19.990 -12.432  46.187  0.00  0.00    -0.297 N 
ATOM     15  H   ILE A   2      19.584 -12.392  45.230  0.00  0.00    +0.150 HD
BRANCH  12  16
ATOM     16  CA  GLU A   1      21.714 -13.840  45.170  0.00  0.00    +0.145 C 
BRANCH  16  17
ATOM     17  N   GLU A   1      20.739 -14.321  44.187  0.00  0.00    -0.238 NA
ATOM     18  H   GLU A   1      20.890 -14.089  43.185  0.00  0.00    +0.142 HD
ENDBRANCH  16  17
BRANCH  16  19
ATOM     19  CB  GLU A   1      22.741 -12.920  44.495  0.00  0.00    +0.038 C 
BRANCH  19  20
ATOM     20  CG  GLU A   1      23.853 -12.421  45.408  0.00  0.00    +0.116 C 
BRANCH  20  21
ATOM     21  CD  GLU A   1      25.220 -12.931  45.001  0.00  0.00    +0.365 C 
ATOM     22  OE2 GLU A   1      25.641 -13.982  45.530  0.00  0.00    -0.246 OA
ATOM     23  OE1 GLU A   1      25.872 -12.278  44.155  0.00  0.00    -0.246 OA
ENDBRANCH  20  21
ENDBRANCH  19  20
ENDBRANCH  16  19
ENDBRANCH  12  16
ENDBRANCH  11  14
BRANCH  11  24
ATOM     24  CB  ILE A   2      19.189 -10.189  46.930  0.00  0.00    +0.027 C 
ATOM     25  CG2 ILE A   2      20.553  -9.499  46.964  0.00  0.00    +0.002 C 
BRANCH  24  26
ATOM     26  CG1 ILE A   2      18.494  -9.995  45.578  0.00  0.00    +0.002 C 
ATOM     27  CD1 ILE A   2      17.564  -8.798  45.528  0.00  0.00    +0.000 C 
ENDBRANCH  24  26
ENDBRANCH  11  24
ENDBRANCH   7  11
ENDBRANCH   5   9
ENDBRANCH   1   5
BRANCH   2  28
ATOM     28  CA  ARG A   4      15.558 -15.385  51.156  0.00  0.00    +0.149 C 
BRANCH  28  29
ATOM     29  C   ARG A   4      14.924 -16.778  51.178  0.00  0.00    +0.244 C 
ATOM     30  N   PRO A   5      15.392 -17.668  52.059  0.00  0.00    -0.273 N 
ATOM     31  CA  PRO A   5      16.450 -17.375  53.039  0.00  0.00    +0.140 C 
ATOM     32  CB  PRO A   5      16.251 -18.464  54.104  0.00  0.00    +0.030 C 
ATOM     33  CG  PRO A   5      15.050 -19.264  53.658  0.00  0.00    +0.024 C 
ATOM     34  CD  PRO A   5      14.904 -19.050  52.188  0.00  0.00    +0.094 C 
ATOM     35  O   ARG A   4      14.005 -17.039  50.401  0.00  0.00    -0.273 OA
BRANCH  31  36
ATOM     36  C   PRO A   5      17.873 -17.451  52.477  0.00  0.00    +0.227 C 
ATOM     37  O   PRO A   5      18.789 -16.912  53.099  0.00  0.00    -0.286 OA
ENDBRANCH  31  36
ENDBRANCH  28  29
BRANCH  28  38
ATOM     38  CB  ARG A   4      14.825 -14.447  52.118  0.00  0.00    +0.033 C 
BRANCH  38  39
ATOM     39  CG  ARG A   4      15.416 -13.049  52.205  0.00  0.00    +0.045 C 
BRANCH  39  40
ATOM     40  CD  ARG A   4      16.640 -12.940  53.089  0.00  0.00    +0.174 C 
BRANCH  40  41
ATOM     41  NE  ARG A   4      17.155 -11.574  53.123  0.00  0.00    -0.265 N 
ATOM     42  CZ  ARG A   4      17.394 -10.884  54.234  0.00  0.00    +0.342 C 
ATOM     43  NH2 ARG A   4      17.170 -11.426  55.427  0.00  0.00    -0.292 N 
ATOM     44 HH21 ARG A   4      17.360 -10.879  56.291  0.00  0.00    +0.255 HD
ATOM     45 HH22 ARG A   4      16.805 -12.397  55.497  0.00  0.00    +0.255 HD
ATOM     46  NH1 ARG A   4      17.862  -9.646  54.152  0.00  0.00    -0.292 N 
ATOM     47 HH11 ARG A   4      18.050  -9.103  55.019  0.00  0.00    +0.255 HD
ATOM     48 HH12 ARG A   4      18.041  -9.218  53.221  0.00  0.00    +0.255 HD
ATOM     49  HE  ARG A   4      17.349 -11.108  52.214  0.00  0.00    +0.259 HD
ENDBRANCH  40  41
ENDBRANCH  39  40
ENDBRANCH  38  39
ENDBRANCH  28  38
ENDBRANCH   2  28
TORSDOF 18
REMARK  Name = ../refined-set-2016/2fdp/2fdp_pocket.pdb
REMARK  241 active torsions:
REMARK  status: ('A' for Active; 'I' for Inactive)
REMARK    1  A    between atoms: _1  and  _3
REMARK    2  A    between atoms: _3  and  _4
REMARK    3  A    between atoms: _3  and  _6
REMARK    4  A    between atoms: _6  and  _7
REMARK    5  A    between atoms: _7  and  _8
REMARK    6  A    between atoms: _8  and  _9
REMARK    7  A    between atoms: _9  and  _10
REMARK    8  A    between atoms: _14  and  _16
REMARK    9  A    between atoms: _16  and  _17
REMARK   10  A    between atoms: _16  and  _19
REMARK   11  A    between atoms: _19  and  _20
REMARK   12  A    between atoms: _22  and  _24
REMARK   13  A    between atoms: _24  and  _25
REMARK   14  A    between atoms: _27  and  _29
REMARK   15  A    between atoms: _29  and  _30
REMARK   16  A    between atoms: _29  and  _32
REMARK   17  A    between atoms: _32  and  _33
REMARK   18  A    between atoms: _33  and  _34
REMARK   19  A    between atoms: _39  and  _41
REMARK   20  A    between atoms: _41  and  _42
REMARK   21  A    between atoms: _44  and  _46
REMARK   22  A    between atoms: _46  and  _47
REMARK   23  A    between atoms: _46  and  _49
REMARK   24  A    between atoms: _49  and  _50
REMARK   25  A    between atoms: _55  and  _56
REMARK   26  A    between atoms: _58  and  _60
REMARK   27  A    between atoms: _60  and  _61
REMARK   28  A    between atoms: _60  and  _63
REMARK   29  A    between atoms: _63  and  _64
REMARK   30  A    between atoms: _67  and  _69
REMARK   31  A    between atoms: _69  and  _70
REMARK   32  A    between atoms: _69  and  _72
REMARK   33  A    between atoms: _75  and  _77
REMARK   34  A    between atoms: _77  and  _78
REMARK   35  A    between atoms: _77  and  _80
REMARK   36  A    between atoms: _80  and  _81
REMARK   37  A    between atoms: _84  and  _86
REMARK   38  A    between atoms: _86  and  _87
REMARK   39  A    between atoms: _86  and  _89
REMARK   40  A    between atoms: _89  and  _90
REMARK   41  A    between atoms: _93  and  _95
REMARK   42  A    between atoms: _95  and  _96
REMARK   43  A    between atoms: _98  and  _100
REMARK   44  A    between atoms: _100  and  _101
REMARK   45  A    between atoms: _100  and  _103
REMARK   46  A    between atoms: _103  and  _104
REMARK   47  A    between atoms: _106  and  _108
REMARK   48  A    between atoms: _108  and  _109
REMARK   49  A    between atoms: _108  and  _111
REMARK   50  A    between atoms: _111  and  _112
REMARK   51  A    between atoms: _114  and  _116
REMARK   52  A    between atoms: _116  and  _117
REMARK   53  A    between atoms: _116  and  _119
REMARK   54  A    between atoms: _119  and  _120
REMARK   55  A    between atoms: _125  and  _127
REMARK   56  A    between atoms: _127  and  _128
REMARK   57  A    between atoms: _127  and  _130
REMARK   58  A    between atoms: _130  and  _131
REMARK   59  A    between atoms: _136  and  _137
REMARK   60  A    between atoms: _139  and  _141
REMARK   61  A    between atoms: _141  and  _142
REMARK   62  A    between atoms: _141  and  _144
REMARK   63  A    between atoms: _148  and  _149
REMARK   64  A    between atoms: _154  and  _156
REMARK   65  A    between atoms: _156  and  _157
REMARK   66  A    between atoms: _156  and  _159
REMARK   67  A    between atoms: _159  and  _160
REMARK   68  A    between atoms: _165  and  _166
REMARK   69  A    between atoms: _168  and  _170
REMARK   70  A    between atoms: _170  and  _171
REMARK   71  A    between atoms: _170  and  _173
REMARK   72  A    between atoms: _173  and  _174
REMARK   73  A    between atoms: _177  and  _179
REMARK   74  A    between atoms: _179  and  _180
REMARK   75  A    between atoms: _179  and  _182
REMARK   76  A    between atoms: _182  and  _183
REMARK   77  A    between atoms: _183  and  _184
REMARK   78  A    between atoms: _189  and  _191
REMARK   79  A    between atoms: _191  and  _192
REMARK   80  A    between atoms: _194  and  _196
REMARK   81  A    between atoms: _196  and  _197
REMARK   82  A    between atoms: _196  and  _199
REMARK   83  A    between atoms: _199  and  _200
REMARK   84  A    between atoms: _200  and  _201
REMARK   85  A    between atoms: _201  and  _202
REMARK   86  A    between atoms: _202  and  _203
REMARK   87  A    between atoms: _207  and  _209
REMARK   88  A    between atoms: _209  and  _210
REMARK   89  A    between atoms: _209  and  _212
REMARK   90  A    between atoms: _212  and  _213
REMARK   91  A    between atoms: _223  and  _225
REMARK   92  A    between atoms: _225  and  _226
REMARK   93  A    between atoms: _225  and  _228
REMARK   94  A    between atoms: _228  and  _229
REMARK   95  A    between atoms: _232  and  _234
REMARK   96  A    between atoms: _234  and  _235
REMARK   97  A    between atoms: _234  and  _237
REMARK   98  A    between atoms: _237  and  _238
REMARK   99  A    between atoms: _238  and  _239
REMARK  100  A    between atoms: _239  and  _240
REMARK  101  A    between atoms: _240  and  _241
REMARK  102  A    between atoms: _245  and  _247
REMARK  103  A    between atoms: _247  and  _248
REMARK  104  A    between atoms: _247  and  _250
REMARK  105  A    between atoms: _250  and  _251
REMARK  106  A    between atoms: _257  and  _259
REMARK  107  A    between atoms: _259  and  _260
REMARK  108  A    between atoms: _259  and  _262
REMARK  109  A    between atoms: _262  and  _263
REMARK  110  A    between atoms: _269  and  _271
REMARK  111  A    between atoms: _271  and  _272
REMARK  112  A    between atoms: _271  and  _274
REMARK  113  A    between atoms: _274  and  _275
REMARK  114  A    between atoms: _278  and  _280
REMARK  115  A    between atoms: _280  and  _281
REMARK  116  A    between atoms: _280  and  _283
REMARK  117  A    between atoms: _283  and  _284
REMARK  118  A    between atoms: _286  and  _288
REMARK  119  A    between atoms: _288  and  _289
REMARK  120  A    between atoms: _288  and  _291
REMARK  121  A    between atoms: _291  and  _292
REMARK  122  A    between atoms: _302  and  _304
REMARK  123  A    between atoms: _304  and  _305
REMARK  124  A    between atoms: _307  and  _309
REMARK  125  A    between atoms: _309  and  _310
REMARK  126  A    between atoms: _309  and  _312
REMARK  127  A    between atoms: _312  and  _313
REMARK  128  A    between atoms: _316  and  _318
REMARK  129  A    between atoms: _318  and  _319
REMARK  130  A    between atoms: _318  and  _321
REMARK  131  A    between atoms: _321  and  _322
REMARK  132  A    between atoms: _325  and  _327
REMARK  133  A    between atoms: _327  and  _328
REMARK  134  A    between atoms: _330  and  _332
REMARK  135  A    between atoms: _332  and  _333
REMARK  136  A    between atoms: _336  and  _338
REMARK  137  A    between atoms: _338  and  _339
REMARK  138  A    between atoms: _338  and  _341
REMARK  139  A    between atoms: _341  and  _342
REMARK  140  A    between atoms: _347  and  _348
REMARK  141  A    between atoms: _350  and  _352
REMARK  142  A    between atoms: _352  and  _353
REMARK  143  A    between atoms: _352  and  _355
REMARK  144  A    between atoms: _355  and  _356
REMARK  145  A    between atoms: _356  and  _357
REMARK  146  A    between atoms: _360  and  _362
REMARK  147  A    between atoms: _362  and  _363
REMARK  148  A    between atoms: _362  and  _365
REMARK  149  A    between atoms: _365  and  _366
REMARK  150  A    between atoms: _369  and  _371
REMARK  151  A    between atoms: _371  and  _372
REMARK  152  A    between atoms: _375  and  _377
REMARK  153  A    between atoms: _377  and  _378
REMARK  154  A    between atoms: _377  and  _380
REMARK  155  A    between atoms: _380  and  _381
REMARK  156  A    between atoms: _381  and  _382
REMARK  157  A    between atoms: _382  and  _383
REMARK  158  A    between atoms: _393  and  _394
REMARK  159  A    between atoms: _399  and  _401
REMARK  160  A    between atoms: _401  and  _402
REMARK  161  A    between atoms: _401  and  _404
REMARK  162  A    between atoms: _404  and  _405
REMARK  163  A    between atoms: _415  and  _417
REMARK  164  A    between atoms: _417  and  _418
REMARK  165  A    between atoms: _417  and  _420
REMARK  166  A    between atoms: _420  and  _421
REMARK  167  A    between atoms: _426  and  _427
REMARK  168  A    between atoms: _429  and  _431
REMARK  169  A    between atoms: _431  and  _432
REMARK  170  A    between atoms: _431  and  _434
REMARK  171  A    between atoms: _434  and  _435
REMARK  172  A    between atoms: _435  and  _436
REMARK  173  A    between atoms: _436  and  _437
REMARK  174  A    between atoms: _437  and  _438
REMARK  175  A    between atoms: _442  and  _444
REMARK  176  A    between atoms: _444  and  _445
REMARK  177  A    between atoms: _444  and  _447
REMARK  178  A    between atoms: _447  and  _448
REMARK  179  A    between atoms: _451  and  _453
REMARK  180  A    between atoms: _453  and  _454
REMARK  181  A    between atoms: _453  and  _456
REMARK  182  A    between atoms: _459  and  _461
REMARK  183  A    between atoms: _461  and  _462
REMARK  184  A    between atoms: _461  and  _464
REMARK  185  A    between atoms: _464  and  _465
REMARK  186  A    between atoms: _468  and  _470
REMARK  187  A    between atoms: _470  and  _471
REMARK  188  A    between atoms: _470  and  _473
REMARK  189  A    between atoms: _473  and  _474
REMARK  190  A    between atoms: _476  and  _478
REMARK  191  A    between atoms: _478  and  _479
REMARK  192  A    between atoms: _481  and  _483
REMARK  193  A    between atoms: _483  and  _484
REMARK  194  A    between atoms: _483  and  _486
REMARK  195  A    between atoms: _486  and  _487
REMARK  196  A    between atoms: _490  and  _492
REMARK  197  A    between atoms: _492  and  _493
REMARK  198  A    between atoms: _492  and  _495
REMARK  199  A    between atoms: _495  and  _496
REMARK  200  A    between atoms: _499  and  _501
REMARK  201  A    between atoms: _501  and  _502
REMARK  202  A    between atoms: _501  and  _504
REMARK  203  A    between atoms: _504  and  _505
REMARK  204  A    between atoms: _510  and  _512
REMARK  205  A    between atoms: _512  and  _513
REMARK  206  A    between atoms: _512  and  _515
REMARK  207  A    between atoms: _515  and  _516
REMARK  208  A    between atoms: _516  and  _517
REMARK  209  A    between atoms: _517  and  _518
REMARK  210  A    between atoms: _527  and  _529
REMARK  211  A    between atoms: _529  and  _530
REMARK  212  A    between atoms: _529  and  _532
REMARK  213  A    between atoms: _532  and  _533
REMARK  214  A    between atoms: _533  and  _534
REMARK  215  A    between atoms: _534  and  _535
REMARK  216  A    between atoms: _544  and  _546
REMARK  217  A    between atoms: _546  and  _547
REMARK  218  A    between atoms: _546  and  _549
REMARK  219  A    between atoms: _549  and  _550
REMARK  220  A    between atoms: _552  and  _554
REMARK  221  A    between atoms: _554  and  _555
REMARK  222  A    between atoms: _554  and  _557
REMARK  223  A    between atoms: _557  and  _558
REMARK  224  A    between atoms: _560  and  _562
REMARK  225  A    between atoms: _562  and  _563
REMARK  226  A    between atoms: _562  and  _565
REMARK  227  A    between atoms: _565  and  _566
REMARK  228  A    between atoms: _569  and  _571
REMARK  229  A    between atoms: _571  and  _572
REMARK  230  A    between atoms: _571  and  _574
REMARK  231  A    between atoms: _574  and  _575
REMARK  232  A    between atoms: _578  and  _580
REMARK  233  A    between atoms: _580  and  _581
REMARK  234  A    between atoms: _580  and  _583
REMARK  235  A    between atoms: _586  and  _588
REMARK  236  A    between atoms: _588  and  _589
REMARK  237  A    between atoms: _591  and  _593
REMARK  238  A    between atoms: _593  and  _594
REMARK  239  A    between atoms: _597  and  _599
REMARK  240  A    between atoms: _599  and  _600
REMARK  241  A    between atoms: _599  and  _602
REMARK                            x       y       z     vdW  Elec       q    Type
REMARK                         _______ _______ _______ _____ _____    ______ ____
ROOT
ATOM      1  C   TRP A   1      20.457  -8.778  42.545  0.00  0.00    +0.239 C 
ATOM      2  N   TYR A   2      20.608  -7.473  42.747  0.00  0.00    -0.298 N 
ATOM      3  H   TYR A   2      21.477  -7.130  43.204  0.00  0.00    +0.150 HD
ATOM      4  O   TRP A   1      19.362  -9.297  42.316  0.00  0.00    -0.274 OA
ENDROOT
BRANCH   1   5
ATOM      5  CA  TRP A   1      21.728  -9.632  42.592  0.00  0.00    +0.149 C 
BRANCH   5   6
ATOM      6  N   TRP A   1      22.406  -9.528  41.303  0.00  0.00    -0.238 NA
ATOM      7  H   TRP A   1      22.496  -8.589  40.865  0.00  0.00    +0.142 HD
ENDBRANCH   5   6
BRANCH   5   8
ATOM      8  CB  TRP A   1      22.661  -9.278  43.770  0.00  0.00    +0.054 C 
BRANCH   8   9
ATOM      9  CG  TRP A   1      23.310  -7.900  43.761  0.00  0.00    -0.002 A 
ATOM     10  CD2 TRP A   1      23.723  -7.143  44.909  0.00  0.00    +0.013 A 
ATOM     11  CE3 TRP A   1      23.678  -7.366  46.293  0.00  0.00    +0.001 A 
ATOM     12  CZ3 TRP A   1      24.180  -6.384  47.151  0.00  0.00    +0.000 A 
ATOM     13  CH2 TRP A   1      24.721  -5.190  46.648  0.00  0.00    +0.001 A 
ATOM     14  CZ2 TRP A   1      24.779  -4.945  45.301  0.00  0.00    +0.017 A 
ATOM     15  CE2 TRP A   1      24.274  -5.929  44.439  0.00  0.00    +0.056 A 
ATOM     16  NE1 TRP A   1      24.204  -5.952  43.071  0.00  0.00    -0.352 N 
ATOM     17  HE1 TRP A   1      24.532  -5.196  42.437  0.00  0.00    +0.166 HD
ATOM     18  CD1 TRP A   1      23.631  -7.135  42.671  0.00  0.00    +0.068 A 
ENDBRANCH   8   9
ENDBRANCH   5   8
ENDBRANCH   1   5
BRANCH   2  19
ATOM     19  CA  TYR A   2      19.593  -6.512  42.348  0.00  0.00    +0.141 C 
BRANCH  19  20
ATOM     20  C   TYR A   2      19.819  -6.269  40.864  0.00  0.00    +0.227 C 
ATOM     21  O   TYR A   2      20.781  -6.782  40.286  0.00  0.00    -0.286 OA
ENDBRANCH  19  20
BRANCH  19  22
ATOM     22  CB  TYR A   2      19.783  -5.192  43.091  0.00  0.00    +0.054 C 
BRANCH  22  23
ATOM     23  CG  TYR A   2      19.533  -5.234  44.580  0.00  0.00    -0.020 A 
ATOM     24  CD2 TYR A   2      20.561  -5.549  45.470  0.00  0.00    -0.001 A 
ATOM     25  CE2 TYR A   2      20.336  -5.579  46.845  0.00  0.00    +0.036 A 
ATOM     26  CZ  TYR A   2      19.076  -5.280  47.337  0.00  0.00    +0.134 A 
ATOM     27  CE1 TYR A   2      18.044  -4.957  46.473  0.00  0.00    +0.036 A 
ATOM     28  CD1 TYR A   2      18.279  -4.932  45.102  0.00  0.00    -0.001 A 
BRANCH  26  29
ATOM     29  OH  TYR A   2      18.846  -5.303  48.691  0.00  0.00    -0.506 OA
ATOM     30  HH  TYR A   2      19.440  -4.648  49.137  0.00  0.00    +0.292 HD
ENDBRANCH  26  29
ENDBRANCH  22  23
ENDBRANCH  19  22
ENDBRANCH   2  19
TORSDOF 9
REMARK  Name = ../refined-set-2016/2fdp/2fdp_pocket.pdb
REMARK  241 active torsions:
REMARK  status: ('A' for Active; 'I' for Inactive)
REMARK    1  A    between atoms: _1  and  _3
REMARK    2  A    between atoms: _3  and  _4
REMARK    3  A    between atoms: _3  and  _6
REMARK    4  A    between atoms: _6  and  _7
REMARK    5  A    between atoms: _7  and  _8
REMARK    6  A    between atoms: _8  and  _9
REMARK    7  A    between atoms: _9  and  _10
REMARK    8  A    between atoms: _14  and  _16
REMARK    9  A    between atoms: _16  and  _17
REMARK   10  A    between atoms: _16  and  _19
REMARK   11  A    between atoms: _19  and  _20
REMARK   12  A    between atoms: _22  and  _24
REMARK   13  A    between atoms: _24  and  _25
REMARK   14  A    between atoms: _27  and  _29
REMARK   15  A    between atoms: _29  and  _30
REMARK   16  A    between atoms: _29  and  _32
REMARK   17  A    between atoms: _32  and  _33
REMARK   18  A    between atoms: _33  and  _34
REMARK   19  A    between atoms: _39  and  _41
REMARK   20  A    between atoms: _41  and  _42
REMARK   21  A    between atoms: _44  and  _46
REMARK   22  A    between atoms: _46  and  _47
REMARK   23  A    between atoms: _46  and  _49
REMARK   24  A    between atoms: _49  and  _50
REMARK   25  A    between atoms: _55  and  _56
REMARK   26  A    between atoms: _58  and  _60
REMARK   27  A    between atoms: _60  and  _61
REMARK   28  A    between atoms: _60  and  _63
REMARK   29  A    between atoms: _63  and  _64
REMARK   30  A    between atoms: _67  and  _69
REMARK   31  A    between atoms: _69  and  _70
REMARK   32  A    between atoms: _69  and  _72
REMARK   33  A    between atoms: _75  and  _77
REMARK   34  A    between atoms: _77  and  _78
REMARK   35  A    between atoms: _77  and  _80
REMARK   36  A    between atoms: _80  and  _81
REMARK   37  A    between atoms: _84  and  _86
REMARK   38  A    between atoms: _86  and  _87
REMARK   39  A    between atoms: _86  and  _89
REMARK   40  A    between atoms: _89  and  _90
REMARK   41  A    between atoms: _93  and  _95
REMARK   42  A    between atoms: _95  and  _96
REMARK   43  A    between atoms: _98  and  _100
REMARK   44  A    between atoms: _100  and  _101
REMARK   45  A    between atoms: _100  and  _103
REMARK   46  A    between atoms: _103  and  _104
REMARK   47  A    between atoms: _106  and  _108
REMARK   48  A    between atoms: _108  and  _109
REMARK   49  A    between atoms: _108  and  _111
REMARK   50  A    between atoms: _111  and  _112
REMARK   51  A    between atoms: _114  and  _116
REMARK   52  A    between atoms: _116  and  _117
REMARK   53  A    between atoms: _116  and  _119
REMARK   54  A    between atoms: _119  and  _120
REMARK   55  A    between atoms: _125  and  _127
REMARK   56  A    between atoms: _127  and  _128
REMARK   57  A    between atoms: _127  and  _130
REMARK   58  A    between atoms: _130  and  _131
REMARK   59  A    between atoms: _136  and  _137
REMARK   60  A    between atoms: _139  and  _141
REMARK   61  A    between atoms: _141  and  _142
REMARK   62  A    between atoms: _141  and  _144
REMARK   63  A    between atoms: _148  and  _149
REMARK   64  A    between atoms: _154  and  _156
REMARK   65  A    between atoms: _156  and  _157
REMARK   66  A    between atoms: _156  and  _159
REMARK   67  A    between atoms: _159  and  _160
REMARK   68  A    between atoms: _165  and  _166
REMARK   69  A    between atoms: _168  and  _170
REMARK   70  A    between atoms: _170  and  _171
REMARK   71  A    between atoms: _170  and  _173
REMARK   72  A    between atoms: _173  and  _174
REMARK   73  A    between atoms: _177  and  _179
REMARK   74  A    between atoms: _179  and  _180
REMARK   75  A    between atoms: _179  and  _182
REMARK   76  A    between atoms: _182  and  _183
REMARK   77  A    between atoms: _183  and  _184
REMARK   78  A    between atoms: _189  and  _191
REMARK   79  A    between atoms: _191  and  _192
REMARK   80  A    between atoms: _194  and  _196
REMARK   81  A    between atoms: _196  and  _197
REMARK   82  A    between atoms: _196  and  _199
REMARK   83  A    between atoms: _199  and  _200
REMARK   84  A    between atoms: _200  and  _201
REMARK   85  A    between atoms: _201  and  _202
REMARK   86  A    between atoms: _202  and  _203
REMARK   87  A    between atoms: _207  and  _209
REMARK   88  A    between atoms: _209  and  _210
REMARK   89  A    between atoms: _209  and  _212
REMARK   90  A    between atoms: _212  and  _213
REMARK   91  A    between atoms: _223  and  _225
REMARK   92  A    between atoms: _225  and  _226
REMARK   93  A    between atoms: _225  and  _228
REMARK   94  A    between atoms: _228  and  _229
REMARK   95  A    between atoms: _232  and  _234
REMARK   96  A    between atoms: _234  and  _235
REMARK   97  A    between atoms: _234  and  _237
REMARK   98  A    between atoms: _237  and  _238
REMARK   99  A    between atoms: _238  and  _239
REMARK  100  A    between atoms: _239  and  _240
REMARK  101  A    between atoms: _240  and  _241
REMARK  102  A    between atoms: _245  and  _247
REMARK  103  A    between atoms: _247  and  _248
REMARK  104  A    between atoms: _247  and  _250
REMARK  105  A    between atoms: _250  and  _251
REMARK  106  A    between atoms: _257  and  _259
REMARK  107  A    between atoms: _259  and  _260
REMARK  108  A    between atoms: _259  and  _262
REMARK  109  A    between atoms: _262  and  _263
REMARK  110  A    between atoms: _269  and  _271
REMARK  111  A    between atoms: _271  and  _272
REMARK  112  A    between atoms: _271  and  _274
REMARK  113  A    between atoms: _274  and  _275
REMARK  114  A    between atoms: _278  and  _280
REMARK  115  A    between atoms: _280  and  _281
REMARK  116  A    between atoms: _280  and  _283
REMARK  117  A    between atoms: _283  and  _284
REMARK  118  A    between atoms: _286  and  _288
REMARK  119  A    between atoms: _288  and  _289
REMARK  120  A    between atoms: _288  and  _291
REMARK  121  A    between atoms: _291  and  _292
REMARK  122  A    between atoms: _302  and  _304
REMARK  123  A    between atoms: _304  and  _305
REMARK  124  A    between atoms: _307  and  _309
REMARK  125  A    between atoms: _309  and  _310
REMARK  126  A    between atoms: _309  and  _312
REMARK  127  A    between atoms: _312  and  _313
REMARK  128  A    between atoms: _316  and  _318
REMARK  129  A    between atoms: _318  and  _319
REMARK  130  A    between atoms: _318  and  _321
REMARK  131  A    between atoms: _321  and  _322
REMARK  132  A    between atoms: _325  and  _327
REMARK  133  A    between atoms: _327  and  _328
REMARK  134  A    between atoms: _330  and  _332
REMARK  135  A    between atoms: _332  and  _333
REMARK  136  A    between atoms: _336  and  _338
REMARK  137  A    between atoms: _338  and  _339
REMARK  138  A    between atoms: _338  and  _341
REMARK  139  A    between atoms: _341  and  _342
REMARK  140  A    between atoms: _347  and  _348
REMARK  141  A    between atoms: _350  and  _352
REMARK  142  A    between atoms: _352  and  _353
REMARK  143  A    between atoms: _352  and  _355
REMARK  144  A    between atoms: _355  and  _356
REMARK  145  A    between atoms: _356  and  _357
REMARK  146  A    between atoms: _360  and  _362
REMARK  147  A    between atoms: _362  and  _363
REMARK  148  A    between atoms: _362  and  _365
REMARK  149  A    between atoms: _365  and  _366
REMARK  150  A    between atoms: _369  and  _371
REMARK  151  A    between atoms: _371  and  _372
REMARK  152  A    between atoms: _375  and  _377
REMARK  153  A    between atoms: _377  and  _378
REMARK  154  A    between atoms: _377  and  _380
REMARK  155  A    between atoms: _380  and  _381
REMARK  156  A    between atoms: _381  and  _382
REMARK  157  A    between atoms: _382  and  _383
REMARK  158  A    between atoms: _393  and  _394
REMARK  159  A    between atoms: _399  and  _401
REMARK  160  A    between atoms: _401  and  _402
REMARK  161  A    between atoms: _401  and  _404
REMARK  162  A    between atoms: _404  and  _405
REMARK  163  A    between atoms: _415  and  _417
REMARK  164  A    between atoms: _417  and  _418
REMARK  165  A    between atoms: _417  and  _420
REMARK  166  A    between atoms: _420  and  _421
REMARK  167  A    between atoms: _426  and  _427
REMARK  168  A    between atoms: _429  and  _431
REMARK  169  A    between atoms: _431  and  _432
REMARK  170  A    between atoms: _431  and  _434
REMARK  171  A    between atoms: _434  and  _435
REMARK  172  A    between atoms: _435  and  _436
REMARK  173  A    between atoms: _436  and  _437
REMARK  174  A    between atoms: _437  and  _438
REMARK  175  A    between atoms: _442  and  _444
REMARK  176  A    between atoms: _444  and  _445
REMARK  177  A    between atoms: _444  and  _447
REMARK  178  A    between atoms: _447  and  _448
REMARK  179  A    between atoms: _451  and  _453
REMARK  180  A    between atoms: _453  and  _454
REMARK  181  A    between atoms: _453  and  _456
REMARK  182  A    between atoms: _459  and  _461
REMARK  183  A    between atoms: _461  and  _462
REMARK  184  A    between atoms: _461  and  _464
REMARK  185  A    between atoms: _464  and  _465
REMARK  186  A    between atoms: _468  and  _470
REMARK  187  A    between atoms: _470  and  _471
REMARK  188  A    between atoms: _470  and  _473
REMARK  189  A    between atoms: _473  and  _474
REMARK  190  A    between atoms: _476  and  _478
REMARK  191  A    between atoms: _478  and  _479
REMARK  192  A    between atoms: _481  and  _483
REMARK  193  A    between atoms: _483  and  _484
REMARK  194  A    between atoms: _483  and  _486
REMARK  195  A    between atoms: _486  and  _487
REMARK  196  A    between atoms: _490  and  _492
REMARK  197  A    between atoms: _492  and  _493
REMARK  198  A    between atoms: _492  and  _495
REMARK  199  A    between atoms: _495  and  _496
REMARK  200  A    between atoms: _499  and  _501
REMARK  201  A    between atoms: _501  and  _502
REMARK  202  A    between atoms: _501  and  _504
REMARK  203  A    between atoms: _504  and  _505
REMARK  204  A    between atoms: _510  and  _512
REMARK  205  A    between atoms: _512  and  _513
REMARK  206  A    between atoms: _512  and  _515
REMARK  207  A    between atoms: _515  and  _516
REMARK  208  A    between atoms: _516  and  _517
REMARK  209  A    between atoms: _517  and  _518
REMARK  210  A    between atoms: _527  and  _529
REMARK  211  A    between atoms: _529  and  _530
REMARK  212  A    between atoms: _529  and  _532
REMARK  213  A    between atoms: _532  and  _533
REMARK  214  A    between atoms: _533  and  _534
REMARK  215  A    between atoms: _534  and  _535
REMARK  216  A    between atoms: _544  and  _546
REMARK  217  A    between atoms: _546  and  _547
REMARK  218  A    between atoms: _546  and  _549
REMARK  219  A    between atoms: _549  and  _550
REMARK  220  A    between atoms: _552  and  _554
REMARK  221  A    between atoms: _554  and  _555
REMARK  222  A    between atoms: _554  and  _557
REMARK  223  A    between atoms: _557  and  _558
REMARK  224  A    between atoms: _560  and  _562
REMARK  225  A    between atoms: _562  and  _563
REMARK  226  A    between atoms: _562  and  _565
REMARK  227  A    between atoms: _565  and  _566
REMARK  228  A    between atoms: _569  and  _571
REMARK  229  A    between atoms: _571  and  _572
REMARK  230  A    between atoms: _571  and  _574
REMARK  231  A    between atoms: _574  and  _575
REMARK  232  A    between atoms: _578  and  _580
REMARK  233  A    between atoms: _580  and  _581
REMARK  234  A    between atoms: _580  and  _583
REMARK  235  A    between atoms: _586  and  _588
REMARK  236  A    between atoms: _588  and  _589
REMARK  237  A    between atoms: _591  and  _593
REMARK  238  A    between atoms: _593  and  _594
REMARK  239  A    between atoms: _597  and  _599
REMARK  240  A    between atoms: _599  and  _600
REMARK  241  A    between atoms: _599  and  _602
REMARK                            x       y       z     vdW  Elec       q    Type
REMARK                         _______ _______ _______ _____ _____    ______ ____
ROOT
ATOM      1  CG  LYS A   1      22.730  -0.765  45.849  0.00  0.00    -0.000 C 
ENDROOT
BRANCH   1   2
ATOM      2  CB  LYS A   1      24.032  -0.720  45.058  0.00  0.00    +0.025 C 
BRANCH   2   3
ATOM      3  CA  LYS A   1      24.628   0.687  44.889  0.00  0.00    +0.133 C 
BRANCH   3   4
ATOM      4  N   LYS A   1      25.087   1.210  46.179  0.00  0.00    -0.239 NA
ATOM      5  H   LYS A   1      24.558   1.988  46.621  0.00  0.00    +0.142 HD
ENDBRANCH   3   4
BRANCH   3   6
ATOM      6  C   LYS A   1      23.611   1.606  44.203  0.00  0.00    +0.224 C 
ATOM      7  O   LYS A   1      23.142   2.581  44.792  0.00  0.00    -0.287 OA
ENDBRANCH   3   6
ENDBRANCH   2   3
ENDBRANCH   1   2
BRANCH   1   8
ATOM      8  CD  LYS A   1      22.491  -2.137  46.449  0.00  0.00    -0.024 C 
BRANCH   8   9
ATOM      9  CE  LYS A   1      21.290  -2.122  47.381  0.00  0.00    -0.086 C 
BRANCH   9  10
ATOM     10  NZ  LYS A   1      21.679  -1.904  48.804  0.00  0.00    +0.380 N 
ATOM     11  HZ1 LYS A   1      20.826  -1.902  49.399  0.00  0.00    -0.089 HD
ATOM     12  HZ2 LYS A   1      22.314  -2.669  49.109  0.00  0.00    -0.089 HD
ATOM     13  HZ3 LYS A   1      22.167  -0.990  48.893  0.00  0.00    -0.089 HD
ENDBRANCH   9  10
ENDBRANCH   8   9
ENDBRANCH   1   8
TORSDOF 7
REMARK  Name = ../refined-set-2016/2fdp/2fdp_pocket.pdb
REMARK  241 active torsions:
REMARK  status: ('A' for Active; 'I' for Inactive)
REMARK    1  A    between atoms: _1  and  _3
REMARK    2  A    between atoms: _3  and  _4
REMARK    3  A    between atoms: _3  and  _6
REMARK    4  A    between atoms: _6  and  _7
REMARK    5  A    between atoms: _7  and  _8
REMARK    6  A    between atoms: _8  and  _9
REMARK    7  A    between atoms: _9  and  _10
REMARK    8  A    between atoms: _14  and  _16
REMARK    9  A    between atoms: _16  and  _17
REMARK   10  A    between atoms: _16  and  _19
REMARK   11  A    between atoms: _19  and  _20
REMARK   12  A    between atoms: _22  and  _24
REMARK   13  A    between atoms: _24  and  _25
REMARK   14  A    between atoms: _27  and  _29
REMARK   15  A    between atoms: _29  and  _30
REMARK   16  A    between atoms: _29  and  _32
REMARK   17  A    between atoms: _32  and  _33
REMARK   18  A    between atoms: _33  and  _34
REMARK   19  A    between atoms: _39  and  _41
REMARK   20  A    between atoms: _41  and  _42
REMARK   21  A    between atoms: _44  and  _46
REMARK   22  A    between atoms: _46  and  _47
REMARK   23  A    between atoms: _46  and  _49
REMARK   24  A    between atoms: _49  and  _50
REMARK   25  A    between atoms: _55  and  _56
REMARK   26  A    between atoms: _58  and  _60
REMARK   27  A    between atoms: _60  and  _61
REMARK   28  A    between atoms: _60  and  _63
REMARK   29  A    between atoms: _63  and  _64
REMARK   30  A    between atoms: _67  and  _69
REMARK   31  A    between atoms: _69  and  _70
REMARK   32  A    between atoms: _69  and  _72
REMARK   33  A    between atoms: _75  and  _77
REMARK   34  A    between atoms: _77  and  _78
REMARK   35  A    between atoms: _77  and  _80
REMARK   36  A    between atoms: _80  and  _81
REMARK   37  A    between atoms: _84  and  _86
REMARK   38  A    between atoms: _86  and  _87
REMARK   39  A    between atoms: _86  and  _89
REMARK   40  A    between atoms: _89  and  _90
REMARK   41  A    between atoms: _93  and  _95
REMARK   42  A    between atoms: _95  and  _96
REMARK   43  A    between atoms: _98  and  _100
REMARK   44  A    between atoms: _100  and  _101
REMARK   45  A    between atoms: _100  and  _103
REMARK   46  A    between atoms: _103  and  _104
REMARK   47  A    between atoms: _106  and  _108
REMARK   48  A    between atoms: _108  and  _109
REMARK   49  A    between atoms: _108  and  _111
REMARK   50  A    between atoms: _111  and  _112
REMARK   51  A    between atoms: _114  and  _116
REMARK   52  A    between atoms: _116  and  _117
REMARK   53  A    between atoms: _116  and  _119
REMARK   54  A    between atoms: _119  and  _120
REMARK   55  A    between atoms: _125  and  _127
REMARK   56  A    between atoms: _127  and  _128
REMARK   57  A    between atoms: _127  and  _130
REMARK   58  A    between atoms: _130  and  _131
REMARK   59  A    between atoms: _136  and  _137
REMARK   60  A    between atoms: _139  and  _141
REMARK   61  A    between atoms: _141  and  _142
REMARK   62  A    between atoms: _141  and  _144
REMARK   63  A    between atoms: _148  and  _149
REMARK   64  A    between atoms: _154  and  _156
REMARK   65  A    between atoms: _156  and  _157
REMARK   66  A    between atoms: _156  and  _159
REMARK   67  A    between atoms: _159  and  _160
REMARK   68  A    between atoms: _165  and  _166
REMARK   69  A    between atoms: _168  and  _170
REMARK   70  A    between atoms: _170  and  _171
REMARK   71  A    between atoms: _170  and  _173
REMARK   72  A    between atoms: _173  and  _174
REMARK   73  A    between atoms: _177  and  _179
REMARK   74  A    between atoms: _179  and  _180
REMARK   75  A    between atoms: _179  and  _182
REMARK   76  A    between atoms: _182  and  _183
REMARK   77  A    between atoms: _183  and  _184
REMARK   78  A    between atoms: _189  and  _191
REMARK   79  A    between atoms: _191  and  _192
REMARK   80  A    between atoms: _194  and  _196
REMARK   81  A    between atoms: _196  and  _197
REMARK   82  A    between atoms: _196  and  _199
REMARK   83  A    between atoms: _199  and  _200
REMARK   84  A    between atoms: _200  and  _201
REMARK   85  A    between atoms: _201  and  _202
REMARK   86  A    between atoms: _202  and  _203
REMARK   87  A    between atoms: _207  and  _209
REMARK   88  A    between atoms: _209  and  _210
REMARK   89  A    between atoms: _209  and  _212
REMARK   90  A    between atoms: _212  and  _213
REMARK   91  A    between atoms: _223  and  _225
REMARK   92  A    between atoms: _225  and  _226
REMARK   93  A    between atoms: _225  and  _228
REMARK   94  A    between atoms: _228  and  _229
REMARK   95  A    between atoms: _232  and  _234
REMARK   96  A    between atoms: _234  and  _235
REMARK   97  A    between atoms: _234  and  _237
REMARK   98  A    between atoms: _237  and  _238
REMARK   99  A    between atoms: _238  and  _239
REMARK  100  A    between atoms: _239  and  _240
REMARK  101  A    between atoms: _240  and  _241
REMARK  102  A    between atoms: _245  and  _247
REMARK  103  A    between atoms: _247  and  _248
REMARK  104  A    between atoms: _247  and  _250
REMARK  105  A    between atoms: _250  and  _251
REMARK  106  A    between atoms: _257  and  _259
REMARK  107  A    between atoms: _259  and  _260
REMARK  108  A    between atoms: _259  and  _262
REMARK  109  A    between atoms: _262  and  _263
REMARK  110  A    between atoms: _269  and  _271
REMARK  111  A    between atoms: _271  and  _272
REMARK  112  A    between atoms: _271  and  _274
REMARK  113  A    between atoms: _274  and  _275
REMARK  114  A    between atoms: _278  and  _280
REMARK  115  A    between atoms: _280  and  _281
REMARK  116  A    between atoms: _280  and  _283
REMARK  117  A    between atoms: _283  and  _284
REMARK  118  A    between atoms: _286  and  _288
REMARK  119  A    between atoms: _288  and  _289
REMARK  120  A    between atoms: _288  and  _291
REMARK  121  A    between atoms: _291  and  _292
REMARK  122  A    between atoms: _302  and  _304
REMARK  123  A    between atoms: _304  and  _305
REMARK  124  A    between atoms: _307  and  _309
REMARK  125  A    between atoms: _309  and  _310
REMARK  126  A    between atoms: _309  and  _312
REMARK  127  A    between atoms: _312  and  _313
REMARK  128  A    between atoms: _316  and  _318
REMARK  129  A    between atoms: _318  and  _319
REMARK  130  A    between atoms: _318  and  _321
REMARK  131  A    between atoms: _321  and  _322
REMARK  132  A    between atoms: _325  and  _327
REMARK  133  A    between atoms: _327  and  _328
REMARK  134  A    between atoms: _330  and  _332
REMARK  135  A    between atoms: _332  and  _333
REMARK  136  A    between atoms: _336  and  _338
REMARK  137  A    between atoms: _338  and  _339
REMARK  138  A    between atoms: _338  and  _341
REMARK  139  A    between atoms: _341  and  _342
REMARK  140  A    between atoms: _347  and  _348
REMARK  141  A    between atoms: _350  and  _352
REMARK  142  A    between atoms: _352  and  _353
REMARK  143  A    between atoms: _352  and  _355
REMARK  144  A    between atoms: _355  and  _356
REMARK  145  A    between atoms: _356  and  _357
REMARK  146  A    between atoms: _360  and  _362
REMARK  147  A    between atoms: _362  and  _363
REMARK  148  A    between atoms: _362  and  _365
REMARK  149  A    between atoms: _365  and  _366
REMARK  150  A    between atoms: _369  and  _371
REMARK  151  A    between atoms: _371  and  _372
REMARK  152  A    between atoms: _375  and  _377
REMARK  153  A    between atoms: _377  and  _378
REMARK  154  A    between atoms: _377  and  _380
REMARK  155  A    between atoms: _380  and  _381
REMARK  156  A    between atoms: _381  and  _382
REMARK  157  A    between atoms: _382  and  _383
REMARK  158  A    between atoms: _393  and  _394
REMARK  159  A    between atoms: _399  and  _401
REMARK  160  A    between atoms: _401  and  _402
REMARK  161  A    between atoms: _401  and  _404
REMARK  162  A    between atoms: _404  and  _405
REMARK  163  A    between atoms: _415  and  _417
REMARK  164  A    between atoms: _417  and  _418
REMARK  165  A    between atoms: _417  and  _420
REMARK  166  A    between atoms: _420  and  _421
REMARK  167  A    between atoms: _426  and  _427
REMARK  168  A    between atoms: _429  and  _431
REMARK  169  A    between atoms: _431  and  _432
REMARK  170  A    between atoms: _431  and  _434
REMARK  171  A    between atoms: _434  and  _435
REMARK  172  A    between atoms: _435  and  _436
REMARK  173  A    between atoms: _436  and  _437
REMARK  174  A    between atoms: _437  and  _438
REMARK  175  A    between atoms: _442  and  _444
REMARK  176  A    between atoms: _444  and  _445
REMARK  177  A    between atoms: _444  and  _447
REMARK  178  A    between atoms: _447  and  _448
REMARK  179  A    between atoms: _451  and  _453
REMARK  180  A    between atoms: _453  and  _454
REMARK  181  A    between atoms: _453  and  _456
REMARK  182  A    between atoms: _459  and  _461
REMARK  183  A    between atoms: _461  and  _462
REMARK  184  A    between atoms: _461  and  _464
REMARK  185  A    between atoms: _464  and  _465
REMARK  186  A    between atoms: _468  and  _470
REMARK  187  A    between atoms: _470  and  _471
REMARK  188  A    between atoms: _470  and  _473
REMARK  189  A    between atoms: _473  and  _474
REMARK  190  A    between atoms: _476  and  _478
REMARK  191  A    between atoms: _478  and  _479
REMARK  192  A    between atoms: _481  and  _483
REMARK  193  A    between atoms: _483  and  _484
REMARK  194  A    between atoms: _483  and  _486
REMARK  195  A    between atoms: _486  and  _487
REMARK  196  A    between atoms: _490  and  _492
REMARK  197  A    between atoms: _492  and  _493
REMARK  198  A    between atoms: _492  and  _495
REMARK  199  A    between atoms: _495  and  _496
REMARK  200  A    between atoms: _499  and  _501
REMARK  201  A    between atoms: _501  and  _502
REMARK  202  A    between atoms: _501  and  _504
REMARK  203  A    between atoms: _504  and  _505
REMARK  204  A    between atoms: _510  and  _512
REMARK  205  A    between atoms: _512  and  _513
REMARK  206  A    between atoms: _512  and  _515
REMARK  207  A    between atoms: _515  and  _516
REMARK  208  A    between atoms: _516  and  _517
REMARK  209  A    between atoms: _517  and  _518
REMARK  210  A    between atoms: _527  and  _529
REMARK  211  A    between atoms: _529  and  _530
REMARK  212  A    between atoms: _529  and  _532
REMARK  213  A    between atoms: _532  and  _533
REMARK  214  A    between atoms: _533  and  _534
REMARK  215  A    between atoms: _534  and  _535
REMARK  216  A    between atoms: _544  and  _546
REMARK  217  A    between atoms: _546  and  _547
REMARK  218  A    between atoms: _546  and  _549
REMARK  219  A    between atoms: _549  and  _550
REMARK  220  A    between atoms: _552  and  _554
REMARK  221  A    between atoms: _554  and  _555
REMARK  222  A    between atoms: _554  and  _557
REMARK  223  A    between atoms: _557  and  _558
REMARK  224  A    between atoms: _560  and  _562
REMARK  225  A    between atoms: _562  and  _563
REMARK  226  A    between atoms: _562  and  _565
REMARK  227  A    between atoms: _565  and  _566
REMARK  228  A    between atoms: _569  and  _571
REMARK  229  A    between atoms: _571  and  _572
REMARK  230  A    between atoms: _571  and  _574
REMARK  231  A    between atoms: _574  and  _575
REMARK  232  A    between atoms: _578  and  _580
REMARK  233  A    between atoms: _580  and  _581
REMARK  234  A    between atoms: _580  and  _583
REMARK  235  A    between atoms: _586  and  _588
REMARK  236  A    between atoms: _588  and  _589
REMARK  237  A    between atoms: _591  and  _593
REMARK  238  A    between atoms: _593  and  _594
REMARK  239  A    between atoms: _597  and  _599
REMARK  240  A    between atoms: _599  and  _600
REMARK  241  A    between atoms: _599  and  _602
REMARK                            x       y       z     vdW  Elec       q    Type
REMARK                         _______ _______ _______ _____ _____    ______ ____
ROOT
ATOM      1  C   SER A   4       8.659  -1.285  41.287  0.00  0.00    +0.243 C 
ATOM      2  N   GLY A   5       9.247  -1.805  42.364  0.00  0.00    -0.295 N 
ATOM      3  H   GLY A   5      10.229  -2.137  42.286  0.00  0.00    +0.150 HD
ATOM      4  O   SER A   4       7.494  -0.884  41.283  0.00  0.00    -0.273 OA
ENDROOT
BRANCH   2   5
ATOM      5  CA  GLY A   5       8.568  -1.925  43.641  0.00  0.00    +0.176 C 
BRANCH   5   6
ATOM      6  C   GLY A   5       8.885  -0.790  44.593  0.00  0.00    +0.243 C 
ATOM      7  O   GLY A   5       8.796  -0.948  45.808  0.00  0.00    -0.273 OA
ATOM      8  N   THR A   6       9.272   0.351  44.033  0.00  0.00    -0.295 N 
ATOM      9  H   THR A   6       9.431   0.372  43.005  0.00  0.00    +0.150 HD
BRANCH   8  10
ATOM     10  CA  THR A   6       9.484   1.576  44.796  0.00  0.00    +0.176 C 
BRANCH  10  11
ATOM     11  C   THR A   6       8.983   2.732  43.945  0.00  0.00    +0.243 C 
ATOM     12  N   THR A   7       8.193   3.615  44.549  0.00  0.00    -0.295 N 
ATOM     13  H   THR A   7       7.994   3.506  45.564  0.00  0.00    +0.150 HD
ATOM     14  O   THR A   6       9.298   2.813  42.758  0.00  0.00    -0.273 OA
BRANCH  12  15
ATOM     15  CA  THR A   7       7.598   4.732  43.825  0.00  0.00    +0.176 C 
BRANCH  15  16
ATOM     16  C   THR A   7       8.626   5.820  43.513  0.00  0.00    +0.243 C 
ATOM     17  N   ASN A   8       9.192   6.413  44.561  0.00  0.00    -0.298 N 
ATOM     18  H   ASN A   8       9.003   6.033  45.510  0.00  0.00    +0.150 HD
ATOM     19  O   THR A   7       8.903   6.098  42.347  0.00  0.00    -0.273 OA
BRANCH  17  20
ATOM     20  CA  ASN A   8      10.067   7.575  44.434  0.00  0.00    +0.146 C 
BRANCH  20  21
ATOM     21  C   ASN A   8      11.436   7.269  43.840  0.00  0.00    +0.227 C 
ATOM     22  O   ASN A   8      11.873   6.117  43.810  0.00  0.00    -0.286 OA
ENDBRANCH  20  21
BRANCH  20  23
ATOM     23  CB  ASN A   8      10.261   8.238  45.804  0.00  0.00    +0.112 C 
BRANCH  23  24
ATOM     24  CG  ASN A   8       8.969   8.766  46.395  0.00  0.00    +0.222 C 
ATOM     25  ND2 ASN A   8       9.047   9.241  47.630  0.00  0.00    -0.329 N 
ATOM     26 HD21 ASN A   8       9.957   9.235  48.133  0.00  0.00    +0.145 HD
ATOM     27 HD22 ASN A   8       8.198   9.619  48.096  0.00  0.00    +0.145 HD
ATOM     28  OD1 ASN A   8       7.915   8.750  45.756  0.00  0.00    -0.275 OA
ENDBRANCH  23  24
ENDBRANCH  20  23
ENDBRANCH  17  20
ENDBRANCH  15  16
BRANCH  15  29
ATOM     29  CB  THR A   7       6.402   5.303  44.613  0.00  0.00    +0.137 C 
ATOM     30  CG2 THR A   7       5.737   6.436  43.849  0.00  0.00    +0.034 C 
BRANCH  29  31
ATOM     31  OG1 THR A   7       5.370   4.311  44.688  0.00  0.00    -0.382 OA
ATOM     32  HG1 THR A   7       5.719   3.507  45.149  0.00  0.00    +0.210 HD
ENDBRANCH  29  31
ENDBRANCH  15  29
ENDBRANCH  12  15
ENDBRANCH  10  11
BRANCH  10  33
ATOM     33  CB  THR A   6      10.979   1.758  45.143  0.00  0.00    +0.137 C 
ATOM     34  CG2 THR A   6      11.180   2.931  46.094  0.00  0.00    +0.034 C 
BRANCH  33  35
ATOM     35  OG1 THR A   6      11.438   0.638  45.911  0.00  0.00    -0.382 OA
ATOM     36  HG1 THR A   6      11.322  -0.192  45.384  0.00  0.00    +0.210 HD
ENDBRANCH  33  35
ENDBRANCH  10  33
ENDBRANCH   8  10
ENDBRANCH   5   6
ENDBRANCH   2   5
BRANCH   1  37
ATOM     37  CA  SER A   4       9.509  -1.216  40.017  0.00  0.00    +0.178 C 
BRANCH  37  40
ATOM     38  C   ASP A   3      11.668  -0.506  40.914  0.00  0.00    +0.241 C 
ATOM     39  O   ASP A   3      11.239   0.603  41.242  0.00  0.00    -0.273 OA
ATOM     40  N   SER A   4      10.926  -1.423  40.301  0.00  0.00    -0.295 N 
ATOM     41  H   SER A   4      11.370  -2.319  40.014  0.00  0.00    +0.150 HD
BRANCH  38  42
ATOM     42  CA  ASP A   3      13.107  -0.910  41.217  0.00  0.00    +0.160 C 
BRANCH  42  44
ATOM     43  C   VAL A   2      15.010  -1.055  39.708  0.00  0.00    +0.241 C 
ATOM     44  N   ASP A   3      14.066  -0.322  40.292  0.00  0.00    -0.297 N 
ATOM     45  H   ASP A   3      14.011   0.695  40.083  0.00  0.00    +0.150 HD
ATOM     46  O   VAL A   2      14.989  -2.291  39.684  0.00  0.00    -0.273 OA
BRANCH  43  47
ATOM     47  CA  VAL A   2      16.142  -0.274  39.041  0.00  0.00    +0.148 C 
BRANCH  47  50
ATOM     48  C   ILE A   1      17.900   0.271  40.670  0.00  0.00    +0.238 C 
ATOM     49  O   ILE A   1      17.432   1.384  40.910  0.00  0.00    -0.274 OA
ATOM     50  N   VAL A   2      17.389  -0.556  39.756  0.00  0.00    -0.297 N 
ATOM     51  H   VAL A   2      17.897  -1.438  39.542  0.00  0.00    +0.150 HD
BRANCH  48  52
ATOM     52  CA  ILE A   1      19.141  -0.231  41.420  0.00  0.00    +0.145 C 
BRANCH  52  53
ATOM     53  CB  ILE A   1      18.738  -1.136  42.634  0.00  0.00    +0.025 C 
ATOM     54  CG2 ILE A   1      19.976  -1.696  43.334  0.00  0.00    +0.002 C 
BRANCH  53  55
ATOM     55  CG1 ILE A   1      17.869  -0.368  43.638  0.00  0.00    +0.002 C 
ATOM     56  CD1 ILE A   1      16.879  -1.234  44.392  0.00  0.00    +0.000 C 
ENDBRANCH  53  55
ENDBRANCH  52  53
BRANCH  52  57
ATOM     57  N   ILE A   1      20.032   0.852  41.849  0.00  0.00    -0.238 NA
ATOM     58  H   ILE A   1      19.634   1.658  42.372  0.00  0.00    +0.142 HD
ENDBRANCH  52  57
ENDBRANCH  48  52
ENDBRANCH  47  50
BRANCH  47  59
ATOM     59  CB  VAL A   2      16.223  -0.637  37.536  0.00  0.00    +0.027 C 
ATOM     60  CG2 VAL A   2      17.472  -0.040  36.895  0.00  0.00    +0.002 C 
ATOM     61  CG1 VAL A   2      14.971  -0.165  36.801  0.00  0.00    +0.002 C 
ENDBRANCH  47  59
ENDBRANCH  43  47
ENDBRANCH  42  44
BRANCH  42  62
ATOM     62  CB  ASP A   3      13.486  -0.521  42.651  0.00  0.00    +0.143 C 
BRANCH  62  63
ATOM     63  CG  ASP A   3      12.751  -1.334  43.703  0.00  0.00    +0.367 C 
ATOM     64  OD2 ASP A   3      12.993  -1.220  44.925  0.00  0.00    -0.246 OA
ATOM     65  OD1 ASP A   3      11.868  -2.145  43.349  0.00  0.00    -0.246 OA
ENDBRANCH  62  63
ENDBRANCH  42  62
ENDBRANCH  38  42
ENDBRANCH  37  40
BRANCH  37  66
ATOM     66  CB  SER A   4       9.016  -2.249  39.003  0.00  0.00    +0.166 C 
BRANCH  66  67
ATOM     67  OG  SER A   4       9.218  -3.570  39.479  0.00  0.00    -0.380 OA
ATOM     68  H   SER A   4       8.720  -3.694  40.326  0.00  0.00    +0.211 HD
ENDBRANCH  66  67
ENDBRANCH  37  66
ENDBRANCH   1  37
TORSDOF 29
REMARK  Name = ../refined-set-2016/2fdp/2fdp_pocket.pdb
REMARK  241 active torsions:
REMARK  status: ('A' for Active; 'I' for Inactive)
REMARK    1  A    between atoms: _1  and  _3
REMARK    2  A    between atoms: _3  and  _4
REMARK    3  A    between atoms: _3  and  _6
REMARK    4  A    between atoms: _6  and  _7
REMARK    5  A    between atoms: _7  and  _8
REMARK    6  A    between atoms: _8  and  _9
REMARK    7  A    between atoms: _9  and  _10
REMARK    8  A    between atoms: _14  and  _16
REMARK    9  A    between atoms: _16  and  _17
REMARK   10  A    between atoms: _16  and  _19
REMARK   11  A    between atoms: _19  and  _20
REMARK   12  A    between atoms: _22  and  _24
REMARK   13  A    between atoms: _24  and  _25
REMARK   14  A    between atoms: _27  and  _29
REMARK   15  A    between atoms: _29  and  _30
REMARK   16  A    between atoms: _29  and  _32
REMARK   17  A    between atoms: _32  and  _33
REMARK   18  A    between atoms: _33  and  _34
REMARK   19  A    between atoms: _39  and  _41
REMARK   20  A    between atoms: _41  and  _42
REMARK   21  A    between atoms: _44  and  _46
REMARK   22  A    between atoms: _46  and  _47
REMARK   23  A    between atoms: _46  and  _49
REMARK   24  A    between atoms: _49  and  _50
REMARK   25  A    between atoms: _55  and  _56
REMARK   26  A    between atoms: _58  and  _60
REMARK   27  A    between atoms: _60  and  _61
REMARK   28  A    between atoms: _60  and  _63
REMARK   29  A    between atoms: _63  and  _64
REMARK   30  A    between atoms: _67  and  _69
REMARK   31  A    between atoms: _69  and  _70
REMARK   32  A    between atoms: _69  and  _72
REMARK   33  A    between atoms: _75  and  _77
REMARK   34  A    between atoms: _77  and  _78
REMARK   35  A    between atoms: _77  and  _80
REMARK   36  A    between atoms: _80  and  _81
REMARK   37  A    between atoms: _84  and  _86
REMARK   38  A    between atoms: _86  and  _87
REMARK   39  A    between atoms: _86  and  _89
REMARK   40  A    between atoms: _89  and  _90
REMARK   41  A    between atoms: _93  and  _95
REMARK   42  A    between atoms: _95  and  _96
REMARK   43  A    between atoms: _98  and  _100
REMARK   44  A    between atoms: _100  and  _101
REMARK   45  A    between atoms: _100  and  _103
REMARK   46  A    between atoms: _103  and  _104
REMARK   47  A    between atoms: _106  and  _108
REMARK   48  A    between atoms: _108  and  _109
REMARK   49  A    between atoms: _108  and  _111
REMARK   50  A    between atoms: _111  and  _112
REMARK   51  A    between atoms: _114  and  _116
REMARK   52  A    between atoms: _116  and  _117
REMARK   53  A    between atoms: _116  and  _119
REMARK   54  A    between atoms: _119  and  _120
REMARK   55  A    between atoms: _125  and  _127
REMARK   56  A    between atoms: _127  and  _128
REMARK   57  A    between atoms: _127  and  _130
REMARK   58  A    between atoms: _130  and  _131
REMARK   59  A    between atoms: _136  and  _137
REMARK   60  A    between atoms: _139  and  _141
REMARK   61  A    between atoms: _141  and  _142
REMARK   62  A    between atoms: _141  and  _144
REMARK   63  A    between atoms: _148  and  _149
REMARK   64  A    between atoms: _154  and  _156
REMARK   65  A    between atoms: _156  and  _157
REMARK   66  A    between atoms: _156  and  _159
REMARK   67  A    between atoms: _159  and  _160
REMARK   68  A    between atoms: _165  and  _166
REMARK   69  A    between atoms: _168  and  _170
REMARK   70  A    between atoms: _170  and  _171
REMARK   71  A    between atoms: _170  and  _173
REMARK   72  A    between atoms: _173  and  _174
REMARK   73  A    between atoms: _177  and  _179
REMARK   74  A    between atoms: _179  and  _180
REMARK   75  A    between atoms: _179  and  _182
REMARK   76  A    between atoms: _182  and  _183
REMARK   77  A    between atoms: _183  and  _184
REMARK   78  A    between atoms: _189  and  _191
REMARK   79  A    between atoms: _191  and  _192
REMARK   80  A    between atoms: _194  and  _196
REMARK   81  A    between atoms: _196  and  _197
REMARK   82  A    between atoms: _196  and  _199
REMARK   83  A    between atoms: _199  and  _200
REMARK   84  A    between atoms: _200  and  _201
REMARK   85  A    between atoms: _201  and  _202
REMARK   86  A    between atoms: _202  and  _203
REMARK   87  A    between atoms: _207  and  _209
REMARK   88  A    between atoms: _209  and  _210
REMARK   89  A    between atoms: _209  and  _212
REMARK   90  A    between atoms: _212  and  _213
REMARK   91  A    between atoms: _223  and  _225
REMARK   92  A    between atoms: _225  and  _226
REMARK   93  A    between atoms: _225  and  _228
REMARK   94  A    between atoms: _228  and  _229
REMARK   95  A    between atoms: _232  and  _234
REMARK   96  A    between atoms: _234  and  _235
REMARK   97  A    between atoms: _234  and  _237
REMARK   98  A    between atoms: _237  and  _238
REMARK   99  A    between atoms: _238  and  _239
REMARK  100  A    between atoms: _239  and  _240
REMARK  101  A    between atoms: _240  and  _241
REMARK  102  A    between atoms: _245  and  _247
REMARK  103  A    between atoms: _247  and  _248
REMARK  104  A    between atoms: _247  and  _250
REMARK  105  A    between atoms: _250  and  _251
REMARK  106  A    between atoms: _257  and  _259
REMARK  107  A    between atoms: _259  and  _260
REMARK  108  A    between atoms: _259  and  _262
REMARK  109  A    between atoms: _262  and  _263
REMARK  110  A    between atoms: _269  and  _271
REMARK  111  A    between atoms: _271  and  _272
REMARK  112  A    between atoms: _271  and  _274
REMARK  113  A    between atoms: _274  and  _275
REMARK  114  A    between atoms: _278  and  _280
REMARK  115  A    between atoms: _280  and  _281
REMARK  116  A    between atoms: _280  and  _283
REMARK  117  A    between atoms: _283  and  _284
REMARK  118  A    between atoms: _286  and  _288
REMARK  119  A    between atoms: _288  and  _289
REMARK  120  A    between atoms: _288  and  _291
REMARK  121  A    between atoms: _291  and  _292
REMARK  122  A    between atoms: _302  and  _304
REMARK  123  A    between atoms: _304  and  _305
REMARK  124  A    between atoms: _307  and  _309
REMARK  125  A    between atoms: _309  and  _310
REMARK  126  A    between atoms: _309  and  _312
REMARK  127  A    between atoms: _312  and  _313
REMARK  128  A    between atoms: _316  and  _318
REMARK  129  A    between atoms: _318  and  _319
REMARK  130  A    between atoms: _318  and  _321
REMARK  131  A    between atoms: _321  and  _322
REMARK  132  A    between atoms: _325  and  _327
REMARK  133  A    between atoms: _327  and  _328
REMARK  134  A    between atoms: _330  and  _332
REMARK  135  A    between atoms: _332  and  _333
REMARK  136  A    between atoms: _336  and  _338
REMARK  137  A    between atoms: _338  and  _339
REMARK  138  A    between atoms: _338  and  _341
REMARK  139  A    between atoms: _341  and  _342
REMARK  140  A    between atoms: _347  and  _348
REMARK  141  A    between atoms: _350  and  _352
REMARK  142  A    between atoms: _352  and  _353
REMARK  143  A    between atoms: _352  and  _355
REMARK  144  A    between atoms: _355  and  _356
REMARK  145  A    between atoms: _356  and  _357
REMARK  146  A    between atoms: _360  and  _362
REMARK  147  A    between atoms: _362  and  _363
REMARK  148  A    between atoms: _362  and  _365
REMARK  149  A    between atoms: _365  and  _366
REMARK  150  A    between atoms: _369  and  _371
REMARK  151  A    between atoms: _371  and  _372
REMARK  152  A    between atoms: _375  and  _377
REMARK  153  A    between atoms: _377  and  _378
REMARK  154  A    between atoms: _377  and  _380
REMARK  155  A    between atoms: _380  and  _381
REMARK  156  A    between atoms: _381  and  _382
REMARK  157  A    between atoms: _382  and  _383
REMARK  158  A    between atoms: _393  and  _394
REMARK  159  A    between atoms: _399  and  _401
REMARK  160  A    between atoms: _401  and  _402
REMARK  161  A    between atoms: _401  and  _404
REMARK  162  A    between atoms: _404  and  _405
REMARK  163  A    between atoms: _415  and  _417
REMARK  164  A    between atoms: _417  and  _418
REMARK  165  A    between atoms: _417  and  _420
REMARK  166  A    between atoms: _420  and  _421
REMARK  167  A    between atoms: _426  and  _427
REMARK  168  A    between atoms: _429  and  _431
REMARK  169  A    between atoms: _431  and  _432
REMARK  170  A    between atoms: _431  and  _434
REMARK  171  A    between atoms: _434  and  _435
REMARK  172  A    between atoms: _435  and  _436
REMARK  173  A    between atoms: _436  and  _437
REMARK  174  A    between atoms: _437  and  _438
REMARK  175  A    between atoms: _442  and  _444
REMARK  176  A    between atoms: _444  and  _445
REMARK  177  A    between atoms: _444  and  _447
REMARK  178  A    between atoms: _447  and  _448
REMARK  179  A    between atoms: _451  and  _453
REMARK  180  A    between atoms: _453  and  _454
REMARK  181  A    between atoms: _453  and  _456
REMARK  182  A    between atoms: _459  and  _461
REMARK  183  A    between atoms: _461  and  _462
REMARK  184  A    between atoms: _461  and  _464
REMARK  185  A    between atoms: _464  and  _465
REMARK  186  A    between atoms: _468  and  _470
REMARK  187  A    between atoms: _470  and  _471
REMARK  188  A    between atoms: _470  and  _473
REMARK  189  A    between atoms: _473  and  _474
REMARK  190  A    between atoms: _476  and  _478
REMARK  191  A    between atoms: _478  and  _479
REMARK  192  A    between atoms: _481  and  _483
REMARK  193  A    between atoms: _483  and  _484
REMARK  194  A    between atoms: _483  and  _486
REMARK  195  A    between atoms: _486  and  _487
REMARK  196  A    between atoms: _490  and  _492
REMARK  197  A    between atoms: _492  and  _493
REMARK  198  A    between atoms: _492  and  _495
REMARK  199  A    between atoms: _495  and  _496
REMARK  200  A    between atoms: _499  and  _501
REMARK  201  A    between atoms: _501  and  _502
REMARK  202  A    between atoms: _501  and  _504
REMARK  203  A    between atoms: _504  and  _505
REMARK  204  A    between atoms: _510  and  _512
REMARK  205  A    between atoms: _512  and  _513
REMARK  206  A    between atoms: _512  and  _515
REMARK  207  A    between atoms: _515  and  _516
REMARK  208  A    between atoms: _516  and  _517
REMARK  209  A    between atoms: _517  and  _518
REMARK  210  A    between atoms: _527  and  _529
REMARK  211  A    between atoms: _529  and  _530
REMARK  212  A    between atoms: _529  and  _532
REMARK  213  A    between atoms: _532  and  _533
REMARK  214  A    between atoms: _533  and  _534
REMARK  215  A    between atoms: _534  and  _535
REMARK  216  A    between atoms: _544  and  _546
REMARK  217  A    between atoms: _546  and  _547
REMARK  218  A    between atoms: _546  and  _549
REMARK  219  A    between atoms: _549  and  _550
REMARK  220  A    between atoms: _552  and  _554
REMARK  221  A    between atoms: _554  and  _555
REMARK  222  A    between atoms: _554  and  _557
REMARK  223  A    between atoms: _557  and  _558
REMARK  224  A    between atoms: _560  and  _562
REMARK  225  A    between atoms: _562  and  _563
REMARK  226  A    between atoms: _562  and  _565
REMARK  227  A    between atoms: _565  and  _566
REMARK  228  A    between atoms: _569  and  _571
REMARK  229  A    between atoms: _571  and  _572
REMARK  230  A    between atoms: _571  and  _574
REMARK  231  A    between atoms: _574  and  _575
REMARK  232  A    between atoms: _578  and  _580
REMARK  233  A    between atoms: _580  and  _581
REMARK  234  A    between atoms: _580  and  _583
REMARK  235  A    between atoms: _586  and  _588
REMARK  236  A    between atoms: _588  and  _589
REMARK  237  A    between atoms: _591  and  _593
REMARK  238  A    between atoms: _593  and  _594
REMARK  239  A    between atoms: _597  and  _599
REMARK  240  A    between atoms: _599  and  _600
REMARK  241  A    between atoms: _599  and  _602
REMARK                            x       y       z     vdW  Elec       q    Type
REMARK                         _______ _______ _______ _____ _____    ______ ____
ROOT
ATOM      1  NE  ARG A   1      13.392   5.367  49.480  0.00  0.00    -0.265 N 
ATOM      2  CZ  ARG A   1      13.989   4.988  50.603  0.00  0.00    +0.342 C 
ATOM      3  NH2 ARG A   1      13.512   5.392  51.770  0.00  0.00    -0.292 N 
ATOM      4 HH21 ARG A   1      13.977   5.097  52.652  0.00  0.00    +0.255 HD
ATOM      5 HH22 ARG A   1      12.672   6.004  51.805  0.00  0.00    +0.255 HD
ATOM      6  NH1 ARG A   1      15.064   4.206  50.565  0.00  0.00    -0.292 N 
ATOM      7 HH11 ARG A   1      15.526   3.914  51.450  0.00  0.00    +0.255 HD
ATOM      8 HH12 ARG A   1      15.443   3.887  49.651  0.00  0.00    +0.255 HD
ATOM      9  HE  ARG A   1      12.553   5.977  49.559  0.00  0.00    +0.259 HD
ENDROOT
BRANCH   1  10
ATOM     10  CD  ARG A   1      13.832   4.986  48.140  0.00  0.00    +0.174 C 
BRANCH  10  11
ATOM     11  CG  ARG A   1      14.123   6.204  47.289  0.00  0.00    +0.045 C 
BRANCH  11  12
ATOM     12  CB  ARG A   1      15.583   6.350  46.869  0.00  0.00    +0.029 C 
BRANCH  12  13
ATOM     13  CA  ARG A   1      15.848   7.586  46.009  0.00  0.00    +0.133 C 
BRANCH  13  14
ATOM     14  N   ARG A   1      15.112   7.509  44.754  0.00  0.00    -0.239 NA
ATOM     15  H   ARG A   1      15.267   6.700  44.119  0.00  0.00    +0.142 HD
ENDBRANCH  13  14
BRANCH  13  16
ATOM     16  C   ARG A   1      17.336   7.773  45.752  0.00  0.00    +0.224 C 
ATOM     17  O   ARG A   1      17.903   7.122  44.878  0.00  0.00    -0.287 OA
ENDBRANCH  13  16
ENDBRANCH  12  13
ENDBRANCH  11  12
ENDBRANCH  10  11
ENDBRANCH   1  10
TORSDOF 6
REMARK  Name = ../refined-set-2016/2fdp/2fdp_pocket.pdb
REMARK  241 active torsions:
REMARK  status: ('A' for Active; 'I' for Inactive)
REMARK    1  A    between atoms: _1  and  _3
REMARK    2  A    between atoms: _3  and  _4
REMARK    3  A    between atoms: _3  and  _6
REMARK    4  A    between atoms: _6  and  _7
REMARK    5  A    between atoms: _7  and  _8
REMARK    6  A    between atoms: _8  and  _9
REMARK    7  A    between atoms: _9  and  _10
REMARK    8  A    between atoms: _14  and  _16
REMARK    9  A    between atoms: _16  and  _17
REMARK   10  A    between atoms: _16  and  _19
REMARK   11  A    between atoms: _19  and  _20
REMARK   12  A    between atoms: _22  and  _24
REMARK   13  A    between atoms: _24  and  _25
REMARK   14  A    between atoms: _27  and  _29
REMARK   15  A    between atoms: _29  and  _30
REMARK   16  A    between atoms: _29  and  _32
REMARK   17  A    between atoms: _32  and  _33
REMARK   18  A    between atoms: _33  and  _34
REMARK   19  A    between atoms: _39  and  _41
REMARK   20  A    between atoms: _41  and  _42
REMARK   21  A    between atoms: _44  and  _46
REMARK   22  A    between atoms: _46  and  _47
REMARK   23  A    between atoms: _46  and  _49
REMARK   24  A    between atoms: _49  and  _50
REMARK   25  A    between atoms: _55  and  _56
REMARK   26  A    between atoms: _58  and  _60
REMARK   27  A    between atoms: _60  and  _61
REMARK   28  A    between atoms: _60  and  _63
REMARK   29  A    between atoms: _63  and  _64
REMARK   30  A    between atoms: _67  and  _69
REMARK   31  A    between atoms: _69  and  _70
REMARK   32  A    between atoms: _69  and  _72
REMARK   33  A    between atoms: _75  and  _77
REMARK   34  A    between atoms: _77  and  _78
REMARK   35  A    between atoms: _77  and  _80
REMARK   36  A    between atoms: _80  and  _81
REMARK   37  A    between atoms: _84  and  _86
REMARK   38  A    between atoms: _86  and  _87
REMARK   39  A    between atoms: _86  and  _89
REMARK   40  A    between atoms: _89  and  _90
REMARK   41  A    between atoms: _93  and  _95
REMARK   42  A    between atoms: _95  and  _96
REMARK   43  A    between atoms: _98  and  _100
REMARK   44  A    between atoms: _100  and  _101
REMARK   45  A    between atoms: _100  and  _103
REMARK   46  A    between atoms: _103  and  _104
REMARK   47  A    between atoms: _106  and  _108
REMARK   48  A    between atoms: _108  and  _109
REMARK   49  A    between atoms: _108  and  _111
REMARK   50  A    between atoms: _111  and  _112
REMARK   51  A    between atoms: _114  and  _116
REMARK   52  A    between atoms: _116  and  _117
REMARK   53  A    between atoms: _116  and  _119
REMARK   54  A    between atoms: _119  and  _120
REMARK   55  A    between atoms: _125  and  _127
REMARK   56  A    between atoms: _127  and  _128
REMARK   57  A    between atoms: _127  and  _130
REMARK   58  A    between atoms: _130  and  _131
REMARK   59  A    between atoms: _136  and  _137
REMARK   60  A    between atoms: _139  and  _141
REMARK   61  A    between atoms: _141  and  _142
REMARK   62  A    between atoms: _141  and  _144
REMARK   63  A    between atoms: _148  and  _149
REMARK   64  A    between atoms: _154  and  _156
REMARK   65  A    between atoms: _156  and  _157
REMARK   66  A    between atoms: _156  and  _159
REMARK   67  A    between atoms: _159  and  _160
REMARK   68  A    between atoms: _165  and  _166
REMARK   69  A    between atoms: _168  and  _170
REMARK   70  A    between atoms: _170  and  _171
REMARK   71  A    between atoms: _170  and  _173
REMARK   72  A    between atoms: _173  and  _174
REMARK   73  A    between atoms: _177  and  _179
REMARK   74  A    between atoms: _179  and  _180
REMARK   75  A    between atoms: _179  and  _182
REMARK   76  A    between atoms: _182  and  _183
REMARK   77  A    between atoms: _183  and  _184
REMARK   78  A    between atoms: _189  and  _191
REMARK   79  A    between atoms: _191  and  _192
REMARK   80  A    between atoms: _194  and  _196
REMARK   81  A    between atoms: _196  and  _197
REMARK   82  A    between atoms: _196  and  _199
REMARK   83  A    between atoms: _199  and  _200
REMARK   84  A    between atoms: _200  and  _201
REMARK   85  A    between atoms: _201  and  _202
REMARK   86  A    between atoms: _202  and  _203
REMARK   87  A    between atoms: _207  and  _209
REMARK   88  A    between atoms: _209  and  _210
REMARK   89  A    between atoms: _209  and  _212
REMARK   90  A    between atoms: _212  and  _213
REMARK   91  A    between atoms: _223  and  _225
REMARK   92  A    between atoms: _225  and  _226
REMARK   93  A    between atoms: _225  and  _228
REMARK   94  A    between atoms: _228  and  _229
REMARK   95  A    between atoms: _232  and  _234
REMARK   96  A    between atoms: _234  and  _235
REMARK   97  A    between atoms: _234  and  _237
REMARK   98  A    between atoms: _237  and  _238
REMARK   99  A    between atoms: _238  and  _239
REMARK  100  A    between atoms: _239  and  _240
REMARK  101  A    between atoms: _240  and  _241
REMARK  102  A    between atoms: _245  and  _247
REMARK  103  A    between atoms: _247  and  _248
REMARK  104  A    between atoms: _247  and  _250
REMARK  105  A    between atoms: _250  and  _251
REMARK  106  A    between atoms: _257  and  _259
REMARK  107  A    between atoms: _259  and  _260
REMARK  108  A    between atoms: _259  and  _262
REMARK  109  A    between atoms: _262  and  _263
REMARK  110  A    between atoms: _269  and  _271
REMARK  111  A    between atoms: _271  and  _272
REMARK  112  A    between atoms: _271  and  _274
REMARK  113  A    between atoms: _274  and  _275
REMARK  114  A    between atoms: _278  and  _280
REMARK  115  A    between atoms: _280  and  _281
REMARK  116  A    between atoms: _280  and  _283
REMARK  117  A    between atoms: _283  and  _284
REMARK  118  A    between atoms: _286  and  _288
REMARK  119  A    between atoms: _288  and  _289
REMARK  120  A    between atoms: _288  and  _291
REMARK  121  A    between atoms: _291  and  _292
REMARK  122  A    between atoms: _302  and  _304
REMARK  123  A    between atoms: _304  and  _305
REMARK  124  A    between atoms: _307  and  _309
REMARK  125  A    between atoms: _309  and  _310
REMARK  126  A    between atoms: _309  and  _312
REMARK  127  A    between atoms: _312  and  _313
REMARK  128  A    between atoms: _316  and  _318
REMARK  129  A    between atoms: _318  and  _319
REMARK  130  A    between atoms: _318  and  _321
REMARK  131  A    between atoms: _321  and  _322
REMARK  132  A    between atoms: _325  and  _327
REMARK  133  A    between atoms: _327  and  _328
REMARK  134  A    between atoms: _330  and  _332
REMARK  135  A    between atoms: _332  and  _333
REMARK  136  A    between atoms: _336  and  _338
REMARK  137  A    between atoms: _338  and  _339
REMARK  138  A    between atoms: _338  and  _341
REMARK  139  A    between atoms: _341  and  _342
REMARK  140  A    between atoms: _347  and  _348
REMARK  141  A    between atoms: _350  and  _352
REMARK  142  A    between atoms: _352  and  _353
REMARK  143  A    between atoms: _352  and  _355
REMARK  144  A    between atoms: _355  and  _356
REMARK  145  A    between atoms: _356  and  _357
REMARK  146  A    between atoms: _360  and  _362
REMARK  147  A    between atoms: _362  and  _363
REMARK  148  A    between atoms: _362  and  _365
REMARK  149  A    between atoms: _365  and  _366
REMARK  150  A    between atoms: _369  and  _371
REMARK  151  A    between atoms: _371  and  _372
REMARK  152  A    between atoms: _375  and  _377
REMARK  153  A    between atoms: _377  and  _378
REMARK  154  A    between atoms: _377  and  _380
REMARK  155  A    between atoms: _380  and  _381
REMARK  156  A    between atoms: _381  and  _382
REMARK  157  A    between atoms: _382  and  _383
REMARK  158  A    between atoms: _393  and  _394
REMARK  159  A    between atoms: _399  and  _401
REMARK  160  A    between atoms: _401  and  _402
REMARK  161  A    between atoms: _401  and  _404
REMARK  162  A    between atoms: _404  and  _405
REMARK  163  A    between atoms: _415  and  _417
REMARK  164  A    between atoms: _417  and  _418
REMARK  165  A    between atoms: _417  and  _420
REMARK  166  A    between atoms: _420  and  _421
REMARK  167  A    between atoms: _426  and  _427
REMARK  168  A    between atoms: _429  and  _431
REMARK  169  A    between atoms: _431  and  _432
REMARK  170  A    between atoms: _431  and  _434
REMARK  171  A    between atoms: _434  and  _435
REMARK  172  A    between atoms: _435  and  _436
REMARK  173  A    between atoms: _436  and  _437
REMARK  174  A    between atoms: _437  and  _438
REMARK  175  A    between atoms: _442  and  _444
REMARK  176  A    between atoms: _444  and  _445
REMARK  177  A    between atoms: _444  and  _447
REMARK  178  A    between atoms: _447  and  _448
REMARK  179  A    between atoms: _451  and  _453
REMARK  180  A    between atoms: _453  and  _454
REMARK  181  A    between atoms: _453  and  _456
REMARK  182  A    between atoms: _459  and  _461
REMARK  183  A    between atoms: _461  and  _462
REMARK  184  A    between atoms: _461  and  _464
REMARK  185  A    between atoms: _464  and  _465
REMARK  186  A    between atoms: _468  and  _470
REMARK  187  A    between atoms: _470  and  _471
REMARK  188  A    between atoms: _470  and  _473
REMARK  189  A    between atoms: _473  and  _474
REMARK  190  A    between atoms: _476  and  _478
REMARK  191  A    between atoms: _478  and  _479
REMARK  192  A    between atoms: _481  and  _483
REMARK  193  A    between atoms: _483  and  _484
REMARK  194  A    between atoms: _483  and  _486
REMARK  195  A    between atoms: _486  and  _487
REMARK  196  A    between atoms: _490  and  _492
REMARK  197  A    between atoms: _492  and  _493
REMARK  198  A    between atoms: _492  and  _495
REMARK  199  A    between atoms: _495  and  _496
REMARK  200  A    between atoms: _499  and  _501
REMARK  201  A    between atoms: _501  and  _502
REMARK  202  A    between atoms: _501  and  _504
REMARK  203  A    between atoms: _504  and  _505
REMARK  204  A    between atoms: _510  and  _512
REMARK  205  A    between atoms: _512  and  _513
REMARK  206  A    between atoms: _512  and  _515
REMARK  207  A    between atoms: _515  and  _516
REMARK  208  A    between atoms: _516  and  _517
REMARK  209  A    between atoms: _517  and  _518
REMARK  210  A    between atoms: _527  and  _529
REMARK  211  A    between atoms: _529  and  _530
REMARK  212  A    between atoms: _529  and  _532
REMARK  213  A    between atoms: _532  and  _533
REMARK  214  A    between atoms: _533  and  _534
REMARK  215  A    between atoms: _534  and  _535
REMARK  216  A    between atoms: _544  and  _546
REMARK  217  A    between atoms: _546  and  _547
REMARK  218  A    between atoms: _546  and  _549
REMARK  219  A    between atoms: _549  and  _550
REMARK  220  A    between atoms: _552  and  _554
REMARK  221  A    between atoms: _554  and  _555
REMARK  222  A    between atoms: _554  and  _557
REMARK  223  A    between atoms: _557  and  _558
REMARK  224  A    between atoms: _560  and  _562
REMARK  225  A    between atoms: _562  and  _563
REMARK  226  A    between atoms: _562  and  _565
REMARK  227  A    between atoms: _565  and  _566
REMARK  228  A    between atoms: _569  and  _571
REMARK  229  A    between atoms: _571  and  _572
REMARK  230  A    between atoms: _571  and  _574
REMARK  231  A    between atoms: _574  and  _575
REMARK  232  A    between atoms: _578  and  _580
REMARK  233  A    between atoms: _580  and  _581
REMARK  234  A    between atoms: _580  and  _583
REMARK  235  A    between atoms: _586  and  _588
REMARK  236  A    between atoms: _588  and  _589
REMARK  237  A    between atoms: _591  and  _593
REMARK  238  A    between atoms: _593  and  _594
REMARK  239  A    between atoms: _597  and  _599
REMARK  240  A    between atoms: _599  and  _600
REMARK  241  A    between atoms: _599  and  _602
REMARK                            x       y       z     vdW  Elec       q    Type
REMARK                         _______ _______ _______ _____ _____    ______ ____
ROOT
ATOM      1  NE  ARG A   1       2.731   9.154  43.586  0.00  0.00    -0.265 N 
ATOM      2  CZ  ARG A   1       2.696   9.187  44.918  0.00  0.00    +0.342 C 
ATOM      3  NH2 ARG A   1       3.788   9.469  45.620  0.00  0.00    -0.292 N 
ATOM      4 HH21 ARG A   1       3.747   9.491  46.659  0.00  0.00    +0.255 HD
ATOM      5 HH22 ARG A   1       4.684   9.667  45.131  0.00  0.00    +0.255 HD
ATOM      6  NH1 ARG A   1       1.560   8.936  45.554  0.00  0.00    -0.292 N 
ATOM      7 HH11 ARG A   1       1.529   8.961  46.593  0.00  0.00    +0.255 HD
ATOM      8 HH12 ARG A   1       0.700   8.714  45.014  0.00  0.00    +0.255 HD
ATOM      9  HE  ARG A   1       1.848   8.925  43.087  0.00  0.00    +0.259 HD
ENDROOT
BRANCH   1  10
ATOM     10  CD  ARG A   1       3.921   9.416  42.772  0.00  0.00    +0.174 C 
BRANCH  10  11
ATOM     11  CG  ARG A   1       3.810  10.714  41.979  0.00  0.00    +0.045 C 
BRANCH  11  12
ATOM     12  CB  ARG A   1       3.755  11.971  42.839  0.00  0.00    +0.029 C 
BRANCH  12  13
ATOM     13  CA  ARG A   1       3.496  13.265  42.060  0.00  0.00    +0.133 C 
BRANCH  13  14
ATOM     14  N   ARG A   1       4.635  14.169  42.200  0.00  0.00    -0.239 NA
ATOM     15  H   ARG A   1       5.312  13.997  42.970  0.00  0.00    +0.142 HD
ENDBRANCH  13  14
BRANCH  13  16
ATOM     16  C   ARG A   1       2.191  13.913  42.530  0.00  0.00    +0.224 C 
ATOM     17  O   ARG A   1       2.167  14.570  43.573  0.00  0.00    -0.287 OA
ENDBRANCH  13  16
ENDBRANCH  12  13
ENDBRANCH  11  12
ENDBRANCH  10  11
ENDBRANCH   1  10
TORSDOF 6
REMARK  Name = ../refined-set-2016/2fdp/2fdp_pocket.pdb
REMARK  241 active torsions:
REMARK  status: ('A' for Active; 'I' for Inactive)
REMARK    1  A    between atoms: _1  and  _3
REMARK    2  A    between atoms: _3  and  _4
REMARK    3  A    between atoms: _3  and  _6
REMARK    4  A    between atoms: _6  and  _7
REMARK    5  A    between atoms: _7  and  _8
REMARK    6  A    between atoms: _8  and  _9
REMARK    7  A    between atoms: _9  and  _10
REMARK    8  A    between atoms: _14  and  _16
REMARK    9  A    between atoms: _16  and  _17
REMARK   10  A    between atoms: _16  and  _19
REMARK   11  A    between atoms: _19  and  _20
REMARK   12  A    between atoms: _22  and  _24
REMARK   13  A    between atoms: _24  and  _25
REMARK   14  A    between atoms: _27  and  _29
REMARK   15  A    between atoms: _29  and  _30
REMARK   16  A    between atoms: _29  and  _32
REMARK   17  A    between atoms: _32  and  _33
REMARK   18  A    between atoms: _33  and  _34
REMARK   19  A    between atoms: _39  and  _41
REMARK   20  A    between atoms: _41  and  _42
REMARK   21  A    between atoms: _44  and  _46
REMARK   22  A    between atoms: _46  and  _47
REMARK   23  A    between atoms: _46  and  _49
REMARK   24  A    between atoms: _49  and  _50
REMARK   25  A    between atoms: _55  and  _56
REMARK   26  A    between atoms: _58  and  _60
REMARK   27  A    between atoms: _60  and  _61
REMARK   28  A    between atoms: _60  and  _63
REMARK   29  A    between atoms: _63  and  _64
REMARK   30  A    between atoms: _67  and  _69
REMARK   31  A    between atoms: _69  and  _70
REMARK   32  A    between atoms: _69  and  _72
REMARK   33  A    between atoms: _75  and  _77
REMARK   34  A    between atoms: _77  and  _78
REMARK   35  A    between atoms: _77  and  _80
REMARK   36  A    between atoms: _80  and  _81
REMARK   37  A    between atoms: _84  and  _86
REMARK   38  A    between atoms: _86  and  _87
REMARK   39  A    between atoms: _86  and  _89
REMARK   40  A    between atoms: _89  and  _90
REMARK   41  A    between atoms: _93  and  _95
REMARK   42  A    between atoms: _95  and  _96
REMARK   43  A    between atoms: _98  and  _100
REMARK   44  A    between atoms: _100  and  _101
REMARK   45  A    between atoms: _100  and  _103
REMARK   46  A    between atoms: _103  and  _104
REMARK   47  A    between atoms: _106  and  _108
REMARK   48  A    between atoms: _108  and  _109
REMARK   49  A    between atoms: _108  and  _111
REMARK   50  A    between atoms: _111  and  _112
REMARK   51  A    between atoms: _114  and  _116
REMARK   52  A    between atoms: _116  and  _117
REMARK   53  A    between atoms: _116  and  _119
REMARK   54  A    between atoms: _119  and  _120
REMARK   55  A    between atoms: _125  and  _127
REMARK   56  A    between atoms: _127  and  _128
REMARK   57  A    between atoms: _127  and  _130
REMARK   58  A    between atoms: _130  and  _131
REMARK   59  A    between atoms: _136  and  _137
REMARK   60  A    between atoms: _139  and  _141
REMARK   61  A    between atoms: _141  and  _142
REMARK   62  A    between atoms: _141  and  _144
REMARK   63  A    between atoms: _148  and  _149
REMARK   64  A    between atoms: _154  and  _156
REMARK   65  A    between atoms: _156  and  _157
REMARK   66  A    between atoms: _156  and  _159
REMARK   67  A    between atoms: _159  and  _160
REMARK   68  A    between atoms: _165  and  _166
REMARK   69  A    between atoms: _168  and  _170
REMARK   70  A    between atoms: _170  and  _171
REMARK   71  A    between atoms: _170  and  _173
REMARK   72  A    between atoms: _173  and  _174
REMARK   73  A    between atoms: _177  and  _179
REMARK   74  A    between atoms: _179  and  _180
REMARK   75  A    between atoms: _179  and  _182
REMARK   76  A    between atoms: _182  and  _183
REMARK   77  A    between atoms: _183  and  _184
REMARK   78  A    between atoms: _189  and  _191
REMARK   79  A    between atoms: _191  and  _192
REMARK   80  A    between atoms: _194  and  _196
REMARK   81  A    between atoms: _196  and  _197
REMARK   82  A    between atoms: _196  and  _199
REMARK   83  A    between atoms: _199  and  _200
REMARK   84  A    between atoms: _200  and  _201
REMARK   85  A    between atoms: _201  and  _202
REMARK   86  A    between atoms: _202  and  _203
REMARK   87  A    between atoms: _207  and  _209
REMARK   88  A    between atoms: _209  and  _210
REMARK   89  A    between atoms: _209  and  _212
REMARK   90  A    between atoms: _212  and  _213
REMARK   91  A    between atoms: _223  and  _225
REMARK   92  A    between atoms: _225  and  _226
REMARK   93  A    between atoms: _225  and  _228
REMARK   94  A    between atoms: _228  and  _229
REMARK   95  A    between atoms: _232  and  _234
REMARK   96  A    between atoms: _234  and  _235
REMARK   97  A    between atoms: _234  and  _237
REMARK   98  A    between atoms: _237  and  _238
REMARK   99  A    between atoms: _238  and  _239
REMARK  100  A    between atoms: _239  and  _240
REMARK  101  A    between atoms: _240  and  _241
REMARK  102  A    between atoms: _245  and  _247
REMARK  103  A    between atoms: _247  and  _248
REMARK  104  A    between atoms: _247  and  _250
REMARK  105  A    between atoms: _250  and  _251
REMARK  106  A    between atoms: _257  and  _259
REMARK  107  A    between atoms: _259  and  _260
REMARK  108  A    between atoms: _259  and  _262
REMARK  109  A    between atoms: _262  and  _263
REMARK  110  A    between atoms: _269  and  _271
REMARK  111  A    between atoms: _271  and  _272
REMARK  112  A    between atoms: _271  and  _274
REMARK  113  A    between atoms: _274  and  _275
REMARK  114  A    between atoms: _278  and  _280
REMARK  115  A    between atoms: _280  and  _281
REMARK  116  A    between atoms: _280  and  _283
REMARK  117  A    between atoms: _283  and  _284
REMARK  118  A    between atoms: _286  and  _288
REMARK  119  A    between atoms: _288  and  _289
REMARK  120  A    between atoms: _288  and  _291
REMARK  121  A    between atoms: _291  and  _292
REMARK  122  A    between atoms: _302  and  _304
REMARK  123  A    between atoms: _304  and  _305
REMARK  124  A    between atoms: _307  and  _309
REMARK  125  A    between atoms: _309  and  _310
REMARK  126  A    between atoms: _309  and  _312
REMARK  127  A    between atoms: _312  and  _313
REMARK  128  A    between atoms: _316  and  _318
REMARK  129  A    between atoms: _318  and  _319
REMARK  130  A    between atoms: _318  and  _321
REMARK  131  A    between atoms: _321  and  _322
REMARK  132  A    between atoms: _325  and  _327
REMARK  133  A    between atoms: _327  and  _328
REMARK  134  A    between atoms: _330  and  _332
REMARK  135  A    between atoms: _332  and  _333
REMARK  136  A    between atoms: _336  and  _338
REMARK  137  A    between atoms: _338  and  _339
REMARK  138  A    between atoms: _338  and  _341
REMARK  139  A    between atoms: _341  and  _342
REMARK  140  A    between atoms: _347  and  _348
REMARK  141  A    between atoms: _350  and  _352
REMARK  142  A    between atoms: _352  and  _353
REMARK  143  A    between atoms: _352  and  _355
REMARK  144  A    between atoms: _355  and  _356
REMARK  145  A    between atoms: _356  and  _357
REMARK  146  A    between atoms: _360  and  _362
REMARK  147  A    between atoms: _362  and  _363
REMARK  148  A    between atoms: _362  and  _365
REMARK  149  A    between atoms: _365  and  _366
REMARK  150  A    between atoms: _369  and  _371
REMARK  151  A    between atoms: _371  and  _372
REMARK  152  A    between atoms: _375  and  _377
REMARK  153  A    between atoms: _377  and  _378
REMARK  154  A    between atoms: _377  and  _380
REMARK  155  A    between atoms: _380  and  _381
REMARK  156  A    between atoms: _381  and  _382
REMARK  157  A    between atoms: _382  and  _383
REMARK  158  A    between atoms: _393  and  _394
REMARK  159  A    between atoms: _399  and  _401
REMARK  160  A    between atoms: _401  and  _402
REMARK  161  A    between atoms: _401  and  _404
REMARK  162  A    between atoms: _404  and  _405
REMARK  163  A    between atoms: _415  and  _417
REMARK  164  A    between atoms: _417  and  _418
REMARK  165  A    between atoms: _417  and  _420
REMARK  166  A    between atoms: _420  and  _421
REMARK  167  A    between atoms: _426  and  _427
REMARK  168  A    between atoms: _429  and  _431
REMARK  169  A    between atoms: _431  and  _432
REMARK  170  A    between atoms: _431  and  _434
REMARK  171  A    between atoms: _434  and  _435
REMARK  172  A    between atoms: _435  and  _436
REMARK  173  A    between atoms: _436  and  _437
REMARK  174  A    between atoms: _437  and  _438
REMARK  175  A    between atoms: _442  and  _444
REMARK  176  A    between atoms: _444  and  _445
REMARK  177  A    between atoms: _444  and  _447
REMARK  178  A    between atoms: _447  and  _448
REMARK  179  A    between atoms: _451  and  _453
REMARK  180  A    between atoms: _453  and  _454
REMARK  181  A    between atoms: _453  and  _456
REMARK  182  A    between atoms: _459  and  _461
REMARK  183  A    between atoms: _461  and  _462
REMARK  184  A    between atoms: _461  and  _464
REMARK  185  A    between atoms: _464  and  _465
REMARK  186  A    between atoms: _468  and  _470
REMARK  187  A    between atoms: _470  and  _471
REMARK  188  A    between atoms: _470  and  _473
REMARK  189  A    between atoms: _473  and  _474
REMARK  190  A    between atoms: _476  and  _478
REMARK  191  A    between atoms: _478  and  _479
REMARK  192  A    between atoms: _481  and  _483
REMARK  193  A    between atoms: _483  and  _484
REMARK  194  A    between atoms: _483  and  _486
REMARK  195  A    between atoms: _486  and  _487
REMARK  196  A    between atoms: _490  and  _492
REMARK  197  A    between atoms: _492  and  _493
REMARK  198  A    between atoms: _492  and  _495
REMARK  199  A    between atoms: _495  and  _496
REMARK  200  A    between atoms: _499  and  _501
REMARK  201  A    between atoms: _501  and  _502
REMARK  202  A    between atoms: _501  and  _504
REMARK  203  A    between atoms: _504  and  _505
REMARK  204  A    between atoms: _510  and  _512
REMARK  205  A    between atoms: _512  and  _513
REMARK  206  A    between atoms: _512  and  _515
REMARK  207  A    between atoms: _515  and  _516
REMARK  208  A    between atoms: _516  and  _517
REMARK  209  A    between atoms: _517  and  _518
REMARK  210  A    between atoms: _527  and  _529
REMARK  211  A    between atoms: _529  and  _530
REMARK  212  A    between atoms: _529  and  _532
REMARK  213  A    between atoms: _532  and  _533
REMARK  214  A    between atoms: _533  and  _534
REMARK  215  A    between atoms: _534  and  _535
REMARK  216  A    between atoms: _544  and  _546
REMARK  217  A    between atoms: _546  and  _547
REMARK  218  A    between atoms: _546  and  _549
REMARK  219  A    between atoms: _549  and  _550
REMARK  220  A    between atoms: _552  and  _554
REMARK  221  A    between atoms: _554  and  _555
REMARK  222  A    between atoms: _554  and  _557
REMARK  223  A    between atoms: _557  and  _558
REMARK  224  A    between atoms: _560  and  _562
REMARK  225  A    between atoms: _562  and  _563
REMARK  226  A    between atoms: _562  and  _565
REMARK  227  A    between atoms: _565  and  _566
REMARK  228  A    between atoms: _569  and  _571
REMARK  229  A    between atoms: _571  and  _572
REMARK  230  A    between atoms: _571  and  _574
REMARK  231  A    between atoms: _574  and  _575
REMARK  232  A    between atoms: _578  and  _580
REMARK  233  A    between atoms: _580  and  _581
REMARK  234  A    between atoms: _580  and  _583
REMARK  235  A    between atoms: _586  and  _588
REMARK  236  A    between atoms: _588  and  _589
REMARK  237  A    between atoms: _591  and  _593
REMARK  238  A    between atoms: _593  and  _594
REMARK  239  A    between atoms: _597  and  _599
REMARK  240  A    between atoms: _599  and  _600
REMARK  241  A    between atoms: _599  and  _602
REMARK                            x       y       z     vdW  Elec       q    Type
REMARK                         _______ _______ _______ _____ _____    ______ ____
ROOT
ATOM      1  CA  SER A   1      13.629  10.886  49.135  0.00  0.00    +0.163 C 
ENDROOT
BRANCH   1   2
ATOM      2  N   SER A   1      13.261  11.071  47.734  0.00  0.00    -0.237 NA
ATOM      3  H   SER A   1      13.329  10.261  47.085  0.00  0.00    +0.142 HD
ENDBRANCH   1   2
BRANCH   1   4
ATOM      4  CB  SER A   1      15.070  10.408  49.243  0.00  0.00    +0.227 C 
ATOM      5  OG  SER A   1      15.622   9.866  48.284  0.00  0.00    -0.287 OA
ENDBRANCH   1   4
BRANCH   1   6
ATOM      6  C   SER A   1      12.688   9.893  49.821  0.00  0.00    +0.162 C 
BRANCH   6   7
ATOM      7  O   SER A   1      11.918   9.168  48.879  0.00  0.00    -0.380 OA
ATOM      8  H   SER A   1      11.323   8.537  49.357  0.00  0.00    +0.211 HD
ENDBRANCH   6   7
ENDBRANCH   1   6
TORSDOF 4
REMARK  Name = ../refined-set-2016/2fdp/2fdp_pocket.pdb
REMARK  241 active torsions:
REMARK  status: ('A' for Active; 'I' for Inactive)
REMARK    1  A    between atoms: _1  and  _3
REMARK    2  A    between atoms: _3  and  _4
REMARK    3  A    between atoms: _3  and  _6
REMARK    4  A    between atoms: _6  and  _7
REMARK    5  A    between atoms: _7  and  _8
REMARK    6  A    between atoms: _8  and  _9
REMARK    7  A    between atoms: _9  and  _10
REMARK    8  A    between atoms: _14  and  _16
REMARK    9  A    between atoms: _16  and  _17
REMARK   10  A    between atoms: _16  and  _19
REMARK   11  A    between atoms: _19  and  _20
REMARK   12  A    between atoms: _22  and  _24
REMARK   13  A    between atoms: _24  and  _25
REMARK   14  A    between atoms: _27  and  _29
REMARK   15  A    between atoms: _29  and  _30
REMARK   16  A    between atoms: _29  and  _32
REMARK   17  A    between atoms: _32  and  _33
REMARK   18  A    between atoms: _33  and  _34
REMARK   19  A    between atoms: _39  and  _41
REMARK   20  A    between atoms: _41  and  _42
REMARK   21  A    between atoms: _44  and  _46
REMARK   22  A    between atoms: _46  and  _47
REMARK   23  A    between atoms: _46  and  _49
REMARK   24  A    between atoms: _49  and  _50
REMARK   25  A    between atoms: _55  and  _56
REMARK   26  A    between atoms: _58  and  _60
REMARK   27  A    between atoms: _60  and  _61
REMARK   28  A    between atoms: _60  and  _63
REMARK   29  A    between atoms: _63  and  _64
REMARK   30  A    between atoms: _67  and  _69
REMARK   31  A    between atoms: _69  and  _70
REMARK   32  A    between atoms: _69  and  _72
REMARK   33  A    between atoms: _75  and  _77
REMARK   34  A    between atoms: _77  and  _78
REMARK   35  A    between atoms: _77  and  _80
REMARK   36  A    between atoms: _80  and  _81
REMARK   37  A    between atoms: _84  and  _86
REMARK   38  A    between atoms: _86  and  _87
REMARK   39  A    between atoms: _86  and  _89
REMARK   40  A    between atoms: _89  and  _90
REMARK   41  A    between atoms: _93  and  _95
REMARK   42  A    between atoms: _95  and  _96
REMARK   43  A    between atoms: _98  and  _100
REMARK   44  A    between atoms: _100  and  _101
REMARK   45  A    between atoms: _100  and  _103
REMARK   46  A    between atoms: _103  and  _104
REMARK   47  A    between atoms: _106  and  _108
REMARK   48  A    between atoms: _108  and  _109
REMARK   49  A    between atoms: _108  and  _111
REMARK   50  A    between atoms: _111  and  _112
REMARK   51  A    between atoms: _114  and  _116
REMARK   52  A    between atoms: _116  and  _117
REMARK   53  A    between atoms: _116  and  _119
REMARK   54  A    between atoms: _119  and  _120
REMARK   55  A    between atoms: _125  and  _127
REMARK   56  A    between atoms: _127  and  _128
REMARK   57  A    between atoms: _127  and  _130
REMARK   58  A    between atoms: _130  and  _131
REMARK   59  A    between atoms: _136  and  _137
REMARK   60  A    between atoms: _139  and  _141
REMARK   61  A    between atoms: _141  and  _142
REMARK   62  A    between atoms: _141  and  _144
REMARK   63  A    between atoms: _148  and  _149
REMARK   64  A    between atoms: _154  and  _156
REMARK   65  A    between atoms: _156  and  _157
REMARK   66  A    between atoms: _156  and  _159
REMARK   67  A    between atoms: _159  and  _160
REMARK   68  A    between atoms: _165  and  _166
REMARK   69  A    between atoms: _168  and  _170
REMARK   70  A    between atoms: _170  and  _171
REMARK   71  A    between atoms: _170  and  _173
REMARK   72  A    between atoms: _173  and  _174
REMARK   73  A    between atoms: _177  and  _179
REMARK   74  A    between atoms: _179  and  _180
REMARK   75  A    between atoms: _179  and  _182
REMARK   76  A    between atoms: _182  and  _183
REMARK   77  A    between atoms: _183  and  _184
REMARK   78  A    between atoms: _189  and  _191
REMARK   79  A    between atoms: _191  and  _192
REMARK   80  A    between atoms: _194  and  _196
REMARK   81  A    between atoms: _196  and  _197
REMARK   82  A    between atoms: _196  and  _199
REMARK   83  A    between atoms: _199  and  _200
REMARK   84  A    between atoms: _200  and  _201
REMARK   85  A    between atoms: _201  and  _202
REMARK   86  A    between atoms: _202  and  _203
REMARK   87  A    between atoms: _207  and  _209
REMARK   88  A    between atoms: _209  and  _210
REMARK   89  A    between atoms: _209  and  _212
REMARK   90  A    between atoms: _212  and  _213
REMARK   91  A    between atoms: _223  and  _225
REMARK   92  A    between atoms: _225  and  _226
REMARK   93  A    between atoms: _225  and  _228
REMARK   94  A    between atoms: _228  and  _229
REMARK   95  A    between atoms: _232  and  _234
REMARK   96  A    between atoms: _234  and  _235
REMARK   97  A    between atoms: _234  and  _237
REMARK   98  A    between atoms: _237  and  _238
REMARK   99  A    between atoms: _238  and  _239
REMARK  100  A    between atoms: _239  and  _240
REMARK  101  A    between atoms: _240  and  _241
REMARK  102  A    between atoms: _245  and  _247
REMARK  103  A    between atoms: _247  and  _248
REMARK  104  A    between atoms: _247  and  _250
REMARK  105  A    between atoms: _250  and  _251
REMARK  106  A    between atoms: _257  and  _259
REMARK  107  A    between atoms: _259  and  _260
REMARK  108  A    between atoms: _259  and  _262
REMARK  109  A    between atoms: _262  and  _263
REMARK  110  A    between atoms: _269  and  _271
REMARK  111  A    between atoms: _271  and  _272
REMARK  112  A    between atoms: _271  and  _274
REMARK  113  A    between atoms: _274  and  _275
REMARK  114  A    between atoms: _278  and  _280
REMARK  115  A    between atoms: _280  and  _281
REMARK  116  A    between atoms: _280  and  _283
REMARK  117  A    between atoms: _283  and  _284
REMARK  118  A    between atoms: _286  and  _288
REMARK  119  A    between atoms: _288  and  _289
REMARK  120  A    between atoms: _288  and  _291
REMARK  121  A    between atoms: _291  and  _292
REMARK  122  A    between atoms: _302  and  _304
REMARK  123  A    between atoms: _304  and  _305
REMARK  124  A    between atoms: _307  and  _309
REMARK  125  A    between atoms: _309  and  _310
REMARK  126  A    between atoms: _309  and  _312
REMARK  127  A    between atoms: _312  and  _313
REMARK  128  A    between atoms: _316  and  _318
REMARK  129  A    between atoms: _318  and  _319
REMARK  130  A    between atoms: _318  and  _321
REMARK  131  A    between atoms: _321  and  _322
REMARK  132  A    between atoms: _325  and  _327
REMARK  133  A    between atoms: _327  and  _328
REMARK  134  A    between atoms: _330  and  _332
REMARK  135  A    between atoms: _332  and  _333
REMARK  136  A    between atoms: _336  and  _338
REMARK  137  A    between atoms: _338  and  _339
REMARK  138  A    between atoms: _338  and  _341
REMARK  139  A    between atoms: _341  and  _342
REMARK  140  A    between atoms: _347  and  _348
REMARK  141  A    between atoms: _350  and  _352
REMARK  142  A    between atoms: _352  and  _353
REMARK  143  A    between atoms: _352  and  _355
REMARK  144  A    between atoms: _355  and  _356
REMARK  145  A    between atoms: _356  and  _357
REMARK  146  A    between atoms: _360  and  _362
REMARK  147  A    between atoms: _362  and  _363
REMARK  148  A    between atoms: _362  and  _365
REMARK  149  A    between atoms: _365  and  _366
REMARK  150  A    between atoms: _369  and  _371
REMARK  151  A    between atoms: _371  and  _372
REMARK  152  A    between atoms: _375  and  _377
REMARK  153  A    between atoms: _377  and  _378
REMARK  154  A    between atoms: _377  and  _380
REMARK  155  A    between atoms: _380  and  _381
REMARK  156  A    between atoms: _381  and  _382
REMARK  157  A    between atoms: _382  and  _383
REMARK  158  A    between atoms: _393  and  _394
REMARK  159  A    between atoms: _399  and  _401
REMARK  160  A    between atoms: _401  and  _402
REMARK  161  A    between atoms: _401  and  _404
REMARK  162  A    between atoms: _404  and  _405
REMARK  163  A    between atoms: _415  and  _417
REMARK  164  A    between atoms: _417  and  _418
REMARK  165  A    between atoms: _417  and  _420
REMARK  166  A    between atoms: _420  and  _421
REMARK  167  A    between atoms: _426  and  _427
REMARK  168  A    between atoms: _429  and  _431
REMARK  169  A    between atoms: _431  and  _432
REMARK  170  A    between atoms: _431  and  _434
REMARK  171  A    between atoms: _434  and  _435
REMARK  172  A    between atoms: _435  and  _436
REMARK  173  A    between atoms: _436  and  _437
REMARK  174  A    between atoms: _437  and  _438
REMARK  175  A    between atoms: _442  and  _444
REMARK  176  A    between atoms: _444  and  _445
REMARK  177  A    between atoms: _444  and  _447
REMARK  178  A    between atoms: _447  and  _448
REMARK  179  A    between atoms: _451  and  _453
REMARK  180  A    between atoms: _453  and  _454
REMARK  181  A    between atoms: _453  and  _456
REMARK  182  A    between atoms: _459  and  _461
REMARK  183  A    between atoms: _461  and  _462
REMARK  184  A    between atoms: _461  and  _464
REMARK  185  A    between atoms: _464  and  _465
REMARK  186  A    between atoms: _468  and  _470
REMARK  187  A    between atoms: _470  and  _471
REMARK  188  A    between atoms: _470  and  _473
REMARK  189  A    between atoms: _473  and  _474
REMARK  190  A    between atoms: _476  and  _478
REMARK  191  A    between atoms: _478  and  _479
REMARK  192  A    between atoms: _481  and  _483
REMARK  193  A    between atoms: _483  and  _484
REMARK  194  A    between atoms: _483  and  _486
REMARK  195  A    between atoms: _486  and  _487
REMARK  196  A    between atoms: _490  and  _492
REMARK  197  A    between atoms: _492  and  _493
REMARK  198  A    between atoms: _492  and  _495
REMARK  199  A    between atoms: _495  and  _496
REMARK  200  A    between atoms: _499  and  _501
REMARK  201  A    between atoms: _501  and  _502
REMARK  202  A    between atoms: _501  and  _504
REMARK  203  A    between atoms: _504  and  _505
REMARK  204  A    between atoms: _510  and  _512
REMARK  205  A    between atoms: _512  and  _513
REMARK  206  A    between atoms: _512  and  _515
REMARK  207  A    between atoms: _515  and  _516
REMARK  208  A    between atoms: _516  and  _517
REMARK  209  A    between atoms: _517  and  _518
REMARK  210  A    between atoms: _527  and  _529
REMARK  211  A    between atoms: _529  and  _530
REMARK  212  A    between atoms: _529  and  _532
REMARK  213  A    between atoms: _532  and  _533
REMARK  214  A    between atoms: _533  and  _534
REMARK  215  A    between atoms: _534  and  _535
REMARK  216  A    between atoms: _544  and  _546
REMARK  217  A    between atoms: _546  and  _547
REMARK  218  A    between atoms: _546  and  _549
REMARK  219  A    between atoms: _549  and  _550
REMARK  220  A    between atoms: _552  and  _554
REMARK  221  A    between atoms: _554  and  _555
REMARK  222  A    between atoms: _554  and  _557
REMARK  223  A    between atoms: _557  and  _558
REMARK  224  A    between atoms: _560  and  _562
REMARK  225  A    between atoms: _562  and  _563
REMARK  226  A    between atoms: _562  and  _565
REMARK  227  A    between atoms: _565  and  _566
REMARK  228  A    between atoms: _569  and  _571
REMARK  229  A    between atoms: _571  and  _572
REMARK  230  A    between atoms: _571  and  _574
REMARK  231  A    between atoms: _574  and  _575
REMARK  232  A    between atoms: _578  and  _580
REMARK  233  A    between atoms: _580  and  _581
REMARK  234  A    between atoms: _580  and  _583
REMARK  235  A    between atoms: _586  and  _588
REMARK  236  A    between atoms: _588  and  _589
REMARK  237  A    between atoms: _591  and  _593
REMARK  238  A    between atoms: _593  and  _594
REMARK  239  A    between atoms: _597  and  _599
REMARK  240  A    between atoms: _599  and  _600
REMARK  241  A    between atoms: _599  and  _602
REMARK                            x       y       z     vdW  Elec       q    Type
REMARK                         _______ _______ _______ _____ _____    ______ ____
ROOT
ATOM      1  CA  SER A   1      18.395   6.607  51.000  0.00  0.00    +0.163 C 
ENDROOT
BRANCH   1   2
ATOM      2  N   SER A   1      18.235   8.040  50.787  0.00  0.00    -0.237 NA
ATOM      3  H   SER A   1      19.061   8.599  50.493  0.00  0.00    +0.142 HD
ENDBRANCH   1   2
BRANCH   1   4
ATOM      4  CB  SER A   1      19.660   6.285  51.791  0.00  0.00    +0.227 C 
ATOM      5  OG  SER A   1      20.627   7.052  51.781  0.00  0.00    -0.287 OA
ENDBRANCH   1   4
BRANCH   1   6
ATOM      6  C   SER A   1      18.404   5.875  49.656  0.00  0.00    +0.162 C 
BRANCH   6   7
ATOM      7  O   SER A   1      18.860   4.537  49.788  0.00  0.00    -0.380 OA
ATOM      8  H   SER A   1      18.852   4.098  48.901  0.00  0.00    +0.211 HD
ENDBRANCH   6   7
ENDBRANCH   1   6
TORSDOF 4
REMARK  Name = ../refined-set-2016/2fdp/2fdp_pocket.pdb
REMARK  241 active torsions:
REMARK  status: ('A' for Active; 'I' for Inactive)
REMARK    1  A    between atoms: _1  and  _3
REMARK    2  A    between atoms: _3  and  _4
REMARK    3  A    between atoms: _3  and  _6
REMARK    4  A    between atoms: _6  and  _7
REMARK    5  A    between atoms: _7  and  _8
REMARK    6  A    between atoms: _8  and  _9
REMARK    7  A    between atoms: _9  and  _10
REMARK    8  A    between atoms: _14  and  _16
REMARK    9  A    between atoms: _16  and  _17
REMARK   10  A    between atoms: _16  and  _19
REMARK   11  A    between atoms: _19  and  _20
REMARK   12  A    between atoms: _22  and  _24
REMARK   13  A    between atoms: _24  and  _25
REMARK   14  A    between atoms: _27  and  _29
REMARK   15  A    between atoms: _29  and  _30
REMARK   16  A    between atoms: _29  and  _32
REMARK   17  A    between atoms: _32  and  _33
REMARK   18  A    between atoms: _33  and  _34
REMARK   19  A    between atoms: _39  and  _41
REMARK   20  A    between atoms: _41  and  _42
REMARK   21  A    between atoms: _44  and  _46
REMARK   22  A    between atoms: _46  and  _47
REMARK   23  A    between atoms: _46  and  _49
REMARK   24  A    between atoms: _49  and  _50
REMARK   25  A    between atoms: _55  and  _56
REMARK   26  A    between atoms: _58  and  _60
REMARK   27  A    between atoms: _60  and  _61
REMARK   28  A    between atoms: _60  and  _63
REMARK   29  A    between atoms: _63  and  _64
REMARK   30  A    between atoms: _67  and  _69
REMARK   31  A    between atoms: _69  and  _70
REMARK   32  A    between atoms: _69  and  _72
REMARK   33  A    between atoms: _75  and  _77
REMARK   34  A    between atoms: _77  and  _78
REMARK   35  A    between atoms: _77  and  _80
REMARK   36  A    between atoms: _80  and  _81
REMARK   37  A    between atoms: _84  and  _86
REMARK   38  A    between atoms: _86  and  _87
REMARK   39  A    between atoms: _86  and  _89
REMARK   40  A    between atoms: _89  and  _90
REMARK   41  A    between atoms: _93  and  _95
REMARK   42  A    between atoms: _95  and  _96
REMARK   43  A    between atoms: _98  and  _100
REMARK   44  A    between atoms: _100  and  _101
REMARK   45  A    between atoms: _100  and  _103
REMARK   46  A    between atoms: _103  and  _104
REMARK   47  A    between atoms: _106  and  _108
REMARK   48  A    between atoms: _108  and  _109
REMARK   49  A    between atoms: _108  and  _111
REMARK   50  A    between atoms: _111  and  _112
REMARK   51  A    between atoms: _114  and  _116
REMARK   52  A    between atoms: _116  and  _117
REMARK   53  A    between atoms: _116  and  _119
REMARK   54  A    between atoms: _119  and  _120
REMARK   55  A    between atoms: _125  and  _127
REMARK   56  A    between atoms: _127  and  _128
REMARK   57  A    between atoms: _127  and  _130
REMARK   58  A    between atoms: _130  and  _131
REMARK   59  A    between atoms: _136  and  _137
REMARK   60  A    between atoms: _139  and  _141
REMARK   61  A    between atoms: _141  and  _142
REMARK   62  A    between atoms: _141  and  _144
REMARK   63  A    between atoms: _148  and  _149
REMARK   64  A    between atoms: _154  and  _156
REMARK   65  A    between atoms: _156  and  _157
REMARK   66  A    between atoms: _156  and  _159
REMARK   67  A    between atoms: _159  and  _160
REMARK   68  A    between atoms: _165  and  _166
REMARK   69  A    between atoms: _168  and  _170
REMARK   70  A    between atoms: _170  and  _171
REMARK   71  A    between atoms: _170  and  _173
REMARK   72  A    between atoms: _173  and  _174
REMARK   73  A    between atoms: _177  and  _179
REMARK   74  A    between atoms: _179  and  _180
REMARK   75  A    between atoms: _179  and  _182
REMARK   76  A    between atoms: _182  and  _183
REMARK   77  A    between atoms: _183  and  _184
REMARK   78  A    between atoms: _189  and  _191
REMARK   79  A    between atoms: _191  and  _192
REMARK   80  A    between atoms: _194  and  _196
REMARK   81  A    between atoms: _196  and  _197
REMARK   82  A    between atoms: _196  and  _199
REMARK   83  A    between atoms: _199  and  _200
REMARK   84  A    between atoms: _200  and  _201
REMARK   85  A    between atoms: _201  and  _202
REMARK   86  A    between atoms: _202  and  _203
REMARK   87  A    between atoms: _207  and  _209
REMARK   88  A    between atoms: _209  and  _210
REMARK   89  A    between atoms: _209  and  _212
REMARK   90  A    between atoms: _212  and  _213
REMARK   91  A    between atoms: _223  and  _225
REMARK   92  A    between atoms: _225  and  _226
REMARK   93  A    between atoms: _225  and  _228
REMARK   94  A    between atoms: _228  and  _229
REMARK   95  A    between atoms: _232  and  _234
REMARK   96  A    between atoms: _234  and  _235
REMARK   97  A    between atoms: _234  and  _237
REMARK   98  A    between atoms: _237  and  _238
REMARK   99  A    between atoms: _238  and  _239
REMARK  100  A    between atoms: _239  and  _240
REMARK  101  A    between atoms: _240  and  _241
REMARK  102  A    between atoms: _245  and  _247
REMARK  103  A    between atoms: _247  and  _248
REMARK  104  A    between atoms: _247  and  _250
REMARK  105  A    between atoms: _250  and  _251
REMARK  106  A    between atoms: _257  and  _259
REMARK  107  A    between atoms: _259  and  _260
REMARK  108  A    between atoms: _259  and  _262
REMARK  109  A    between atoms: _262  and  _263
REMARK  110  A    between atoms: _269  and  _271
REMARK  111  A    between atoms: _271  and  _272
REMARK  112  A    between atoms: _271  and  _274
REMARK  113  A    between atoms: _274  and  _275
REMARK  114  A    between atoms: _278  and  _280
REMARK  115  A    between atoms: _280  and  _281
REMARK  116  A    between atoms: _280  and  _283
REMARK  117  A    between atoms: _283  and  _284
REMARK  118  A    between atoms: _286  and  _288
REMARK  119  A    between atoms: _288  and  _289
REMARK  120  A    between atoms: _288  and  _291
REMARK  121  A    between atoms: _291  and  _292
REMARK  122  A    between atoms: _302  and  _304
REMARK  123  A    between atoms: _304  and  _305
REMARK  124  A    between atoms: _307  and  _309
REMARK  125  A    between atoms: _309  and  _310
REMARK  126  A    between atoms: _309  and  _312
REMARK  127  A    between atoms: _312  and  _313
REMARK  128  A    between atoms: _316  and  _318
REMARK  129  A    between atoms: _318  and  _319
REMARK  130  A    between atoms: _318  and  _321
REMARK  131  A    between atoms: _321  and  _322
REMARK  132  A    between atoms: _325  and  _327
REMARK  133  A    between atoms: _327  and  _328
REMARK  134  A    between atoms: _330  and  _332
REMARK  135  A    between atoms: _332  and  _333
REMARK  136  A    between atoms: _336  and  _338
REMARK  137  A    between atoms: _338  and  _339
REMARK  138  A    between atoms: _338  and  _341
REMARK  139  A    between atoms: _341  and  _342
REMARK  140  A    between atoms: _347  and  _348
REMARK  141  A    between atoms: _350  and  _352
REMARK  142  A    between atoms: _352  and  _353
REMARK  143  A    between atoms: _352  and  _355
REMARK  144  A    between atoms: _355  and  _356
REMARK  145  A    between atoms: _356  and  _357
REMARK  146  A    between atoms: _360  and  _362
REMARK  147  A    between atoms: _362  and  _363
REMARK  148  A    between atoms: _362  and  _365
REMARK  149  A    between atoms: _365  and  _366
REMARK  150  A    between atoms: _369  and  _371
REMARK  151  A    between atoms: _371  and  _372
REMARK  152  A    between atoms: _375  and  _377
REMARK  153  A    between atoms: _377  and  _378
REMARK  154  A    between atoms: _377  and  _380
REMARK  155  A    between atoms: _380  and  _381
REMARK  156  A    between atoms: _381  and  _382
REMARK  157  A    between atoms: _382  and  _383
REMARK  158  A    between atoms: _393  and  _394
REMARK  159  A    between atoms: _399  and  _401
REMARK  160  A    between atoms: _401  and  _402
REMARK  161  A    between atoms: _401  and  _404
REMARK  162  A    between atoms: _404  and  _405
REMARK  163  A    between atoms: _415  and  _417
REMARK  164  A    between atoms: _417  and  _418
REMARK  165  A    between atoms: _417  and  _420
REMARK  166  A    between atoms: _420  and  _421
REMARK  167  A    between atoms: _426  and  _427
REMARK  168  A    between atoms: _429  and  _431
REMARK  169  A    between atoms: _431  and  _432
REMARK  170  A    between atoms: _431  and  _434
REMARK  171  A    between atoms: _434  and  _435
REMARK  172  A    between atoms: _435  and  _436
REMARK  173  A    between atoms: _436  and  _437
REMARK  174  A    between atoms: _437  and  _438
REMARK  175  A    between atoms: _442  and  _444
REMARK  176  A    between atoms: _444  and  _445
REMARK  177  A    between atoms: _444  and  _447
REMARK  178  A    between atoms: _447  and  _448
REMARK  179  A    between atoms: _451  and  _453
REMARK  180  A    between atoms: _453  and  _454
REMARK  181  A    between atoms: _453  and  _456
REMARK  182  A    between atoms: _459  and  _461
REMARK  183  A    between atoms: _461  and  _462
REMARK  184  A    between atoms: _461  and  _464
REMARK  185  A    between atoms: _464  and  _465
REMARK  186  A    between atoms: _468  and  _470
REMARK  187  A    between atoms: _470  and  _471
REMARK  188  A    between atoms: _470  and  _473
REMARK  189  A    between atoms: _473  and  _474
REMARK  190  A    between atoms: _476  and  _478
REMARK  191  A    between atoms: _478  and  _479
REMARK  192  A    between atoms: _481  and  _483
REMARK  193  A    between atoms: _483  and  _484
REMARK  194  A    between atoms: _483  and  _486
REMARK  195  A    between atoms: _486  and  _487
REMARK  196  A    between atoms: _490  and  _492
REMARK  197  A    between atoms: _492  and  _493
REMARK  198  A    between atoms: _492  and  _495
REMARK  199  A    between atoms: _495  and  _496
REMARK  200  A    between atoms: _499  and  _501
REMARK  201  A    between atoms: _501  and  _502
REMARK  202  A    between atoms: _501  and  _504
REMARK  203  A    between atoms: _504  and  _505
REMARK  204  A    between atoms: _510  and  _512
REMARK  205  A    between atoms: _512  and  _513
REMARK  206  A    between atoms: _512  and  _515
REMARK  207  A    between atoms: _515  and  _516
REMARK  208  A    between atoms: _516  and  _517
REMARK  209  A    between atoms: _517  and  _518
REMARK  210  A    between atoms: _527  and  _529
REMARK  211  A    between atoms: _529  and  _530
REMARK  212  A    between atoms: _529  and  _532
REMARK  213  A    between atoms: _532  and  _533
REMARK  214  A    between atoms: _533  and  _534
REMARK  215  A    between atoms: _534  and  _535
REMARK  216  A    between atoms: _544  and  _546
REMARK  217  A    between atoms: _546  and  _547
REMARK  218  A    between atoms: _546  and  _549
REMARK  219  A    between atoms: _549  and  _550
REMARK  220  A    between atoms: _552  and  _554
REMARK  221  A    between atoms: _554  and  _555
REMARK  222  A    between atoms: _554  and  _557
REMARK  223  A    between atoms: _557  and  _558
REMARK  224  A    between atoms: _560  and  _562
REMARK  225  A    between atoms: _562  and  _563
REMARK  226  A    between atoms: _562  and  _565
REMARK  227  A    between atoms: _565  and  _566
REMARK  228  A    between atoms: _569  and  _571
REMARK  229  A    between atoms: _571  and  _572
REMARK  230  A    between atoms: _571  and  _574
REMARK  231  A    between atoms: _574  and  _575
REMARK  232  A    between atoms: _578  and  _580
REMARK  233  A    between atoms: _580  and  _581
REMARK  234  A    between atoms: _580  and  _583
REMARK  235  A    between atoms: _586  and  _588
REMARK  236  A    between atoms: _588  and  _589
REMARK  237  A    between atoms: _591  and  _593
REMARK  238  A    between atoms: _593  and  _594
REMARK  239  A    between atoms: _597  and  _599
REMARK  240  A    between atoms: _599  and  _600
REMARK  241  A    between atoms: _599  and  _602
REMARK                            x       y       z     vdW  Elec       q    Type
REMARK                         _______ _______ _______ _____ _____    ______ ____
ROOT
ATOM      1  CA  THR A   1      21.126   1.714  50.792  0.00  0.00    +0.160 C 
ENDROOT
BRANCH   1   2
ATOM      2  N   THR A   1      20.689   2.899  51.529  0.00  0.00    -0.237 NA
ATOM      3  H   THR A   1      19.761   3.312  51.306  0.00  0.00    +0.142 HD
ENDBRANCH   1   2
BRANCH   1   4
ATOM      4  CB  THR A   1      20.109   0.557  50.960  0.00  0.00    +0.134 C 
ATOM      5  CG2 THR A   1      20.022   0.113  52.420  0.00  0.00    +0.034 C 
BRANCH   4   6
ATOM      6  OG1 THR A   1      18.788   1.028  50.670  0.00  0.00    -0.383 OA
ATOM      7  HG1 THR A   1      18.755   1.362  49.738  0.00  0.00    +0.210 HD
ENDBRANCH   4   6
ENDBRANCH   1   4
BRANCH   1   8
ATOM      8  C   THR A   1      21.367   2.001  49.307  0.00  0.00    +0.227 C 
ATOM      9  O   THR A   1      21.272   1.101  48.468  0.00  0.00    -0.287 OA
ENDBRANCH   1   8
TORSDOF 4
REMARK  Name = ../refined-set-2016/2fdp/2fdp_pocket.pdb
REMARK  241 active torsions:
REMARK  status: ('A' for Active; 'I' for Inactive)
REMARK    1  A    between atoms: _1  and  _3
REMARK    2  A    between atoms: _3  and  _4
REMARK    3  A    between atoms: _3  and  _6
REMARK    4  A    between atoms: _6  and  _7
REMARK    5  A    between atoms: _7  and  _8
REMARK    6  A    between atoms: _8  and  _9
REMARK    7  A    between atoms: _9  and  _10
REMARK    8  A    between atoms: _14  and  _16
REMARK    9  A    between atoms: _16  and  _17
REMARK   10  A    between atoms: _16  and  _19
REMARK   11  A    between atoms: _19  and  _20
REMARK   12  A    between atoms: _22  and  _24
REMARK   13  A    between atoms: _24  and  _25
REMARK   14  A    between atoms: _27  and  _29
REMARK   15  A    between atoms: _29  and  _30
REMARK   16  A    between atoms: _29  and  _32
REMARK   17  A    between atoms: _32  and  _33
REMARK   18  A    between atoms: _33  and  _34
REMARK   19  A    between atoms: _39  and  _41
REMARK   20  A    between atoms: _41  and  _42
REMARK   21  A    between atoms: _44  and  _46
REMARK   22  A    between atoms: _46  and  _47
REMARK   23  A    between atoms: _46  and  _49
REMARK   24  A    between atoms: _49  and  _50
REMARK   25  A    between atoms: _55  and  _56
REMARK   26  A    between atoms: _58  and  _60
REMARK   27  A    between atoms: _60  and  _61
REMARK   28  A    between atoms: _60  and  _63
REMARK   29  A    between atoms: _63  and  _64
REMARK   30  A    between atoms: _67  and  _69
REMARK   31  A    between atoms: _69  and  _70
REMARK   32  A    between atoms: _69  and  _72
REMARK   33  A    between atoms: _75  and  _77
REMARK   34  A    between atoms: _77  and  _78
REMARK   35  A    between atoms: _77  and  _80
REMARK   36  A    between atoms: _80  and  _81
REMARK   37  A    between atoms: _84  and  _86
REMARK   38  A    between atoms: _86  and  _87
REMARK   39  A    between atoms: _86  and  _89
REMARK   40  A    between atoms: _89  and  _90
REMARK   41  A    between atoms: _93  and  _95
REMARK   42  A    between atoms: _95  and  _96
REMARK   43  A    between atoms: _98  and  _100
REMARK   44  A    between atoms: _100  and  _101
REMARK   45  A    between atoms: _100  and  _103
REMARK   46  A    between atoms: _103  and  _104
REMARK   47  A    between atoms: _106  and  _108
REMARK   48  A    between atoms: _108  and  _109
REMARK   49  A    between atoms: _108  and  _111
REMARK   50  A    between atoms: _111  and  _112
REMARK   51  A    between atoms: _114  and  _116
REMARK   52  A    between atoms: _116  and  _117
REMARK   53  A    between atoms: _116  and  _119
REMARK   54  A    between atoms: _119  and  _120
REMARK   55  A    between atoms: _125  and  _127
REMARK   56  A    between atoms: _127  and  _128
REMARK   57  A    between atoms: _127  and  _130
REMARK   58  A    between atoms: _130  and  _131
REMARK   59  A    between atoms: _136  and  _137
REMARK   60  A    between atoms: _139  and  _141
REMARK   61  A    between atoms: _141  and  _142
REMARK   62  A    between atoms: _141  and  _144
REMARK   63  A    between atoms: _148  and  _149
REMARK   64  A    between atoms: _154  and  _156
REMARK   65  A    between atoms: _156  and  _157
REMARK   66  A    between atoms: _156  and  _159
REMARK   67  A    between atoms: _159  and  _160
REMARK   68  A    between atoms: _165  and  _166
REMARK   69  A    between atoms: _168  and  _170
REMARK   70  A    between atoms: _170  and  _171
REMARK   71  A    between atoms: _170  and  _173
REMARK   72  A    between atoms: _173  and  _174
REMARK   73  A    between atoms: _177  and  _179
REMARK   74  A    between atoms: _179  and  _180
REMARK   75  A    between atoms: _179  and  _182
REMARK   76  A    between atoms: _182  and  _183
REMARK   77  A    between atoms: _183  and  _184
REMARK   78  A    between atoms: _189  and  _191
REMARK   79  A    between atoms: _191  and  _192
REMARK   80  A    between atoms: _194  and  _196
REMARK   81  A    between atoms: _196  and  _197
REMARK   82  A    between atoms: _196  and  _199
REMARK   83  A    between atoms: _199  and  _200
REMARK   84  A    between atoms: _200  and  _201
REMARK   85  A    between atoms: _201  and  _202
REMARK   86  A    between atoms: _202  and  _203
REMARK   87  A    between atoms: _207  and  _209
REMARK   88  A    between atoms: _209  and  _210
REMARK   89  A    between atoms: _209  and  _212
REMARK   90  A    between atoms: _212  and  _213
REMARK   91  A    between atoms: _223  and  _225
REMARK   92  A    between atoms: _225  and  _226
REMARK   93  A    between atoms: _225  and  _228
REMARK   94  A    between atoms: _228  and  _229
REMARK   95  A    between atoms: _232  and  _234
REMARK   96  A    between atoms: _234  and  _235
REMARK   97  A    between atoms: _234  and  _237
REMARK   98  A    between atoms: _237  and  _238
REMARK   99  A    between atoms: _238  and  _239
REMARK  100  A    between atoms: _239  and  _240
REMARK  101  A    between atoms: _240  and  _241
REMARK  102  A    between atoms: _245  and  _247
REMARK  103  A    between atoms: _247  and  _248
REMARK  104  A    between atoms: _247  and  _250
REMARK  105  A    between atoms: _250  and  _251
REMARK  106  A    between atoms: _257  and  _259
REMARK  107  A    between atoms: _259  and  _260
REMARK  108  A    between atoms: _259  and  _262
REMARK  109  A    between atoms: _262  and  _263
REMARK  110  A    between atoms: _269  and  _271
REMARK  111  A    between atoms: _271  and  _272
REMARK  112  A    between atoms: _271  and  _274
REMARK  113  A    between atoms: _274  and  _275
REMARK  114  A    between atoms: _278  and  _280
REMARK  115  A    between atoms: _280  and  _281
REMARK  116  A    between atoms: _280  and  _283
REMARK  117  A    between atoms: _283  and  _284
REMARK  118  A    between atoms: _286  and  _288
REMARK  119  A    between atoms: _288  and  _289
REMARK  120  A    between atoms: _288  and  _291
REMARK  121  A    between atoms: _291  and  _292
REMARK  122  A    between atoms: _302  and  _304
REMARK  123  A    between atoms: _304  and  _305
REMARK  124  A    between atoms: _307  and  _309
REMARK  125  A    between atoms: _309  and  _310
REMARK  126  A    between atoms: _309  and  _312
REMARK  127  A    between atoms: _312  and  _313
REMARK  128  A    between atoms: _316  and  _318
REMARK  129  A    between atoms: _318  and  _319
REMARK  130  A    between atoms: _318  and  _321
REMARK  131  A    between atoms: _321  and  _322
REMARK  132  A    between atoms: _325  and  _327
REMARK  133  A    between atoms: _327  and  _328
REMARK  134  A    between atoms: _330  and  _332
REMARK  135  A    between atoms: _332  and  _333
REMARK  136  A    between atoms: _336  and  _338
REMARK  137  A    between atoms: _338  and  _339
REMARK  138  A    between atoms: _338  and  _341
REMARK  139  A    between atoms: _341  and  _342
REMARK  140  A    between atoms: _347  and  _348
REMARK  141  A    between atoms: _350  and  _352
REMARK  142  A    between atoms: _352  and  _353
REMARK  143  A    between atoms: _352  and  _355
REMARK  144  A    between atoms: _355  and  _356
REMARK  145  A    between atoms: _356  and  _357
REMARK  146  A    between atoms: _360  and  _362
REMARK  147  A    between atoms: _362  and  _363
REMARK  148  A    between atoms: _362  and  _365
REMARK  149  A    between atoms: _365  and  _366
REMARK  150  A    between atoms: _369  and  _371
REMARK  151  A    between atoms: _371  and  _372
REMARK  152  A    between atoms: _375  and  _377
REMARK  153  A    between atoms: _377  and  _378
REMARK  154  A    between atoms: _377  and  _380
REMARK  155  A    between atoms: _380  and  _381
REMARK  156  A    between atoms: _381  and  _382
REMARK  157  A    between atoms: _382  and  _383
REMARK  158  A    between atoms: _393  and  _394
REMARK  159  A    between atoms: _399  and  _401
REMARK  160  A    between atoms: _401  and  _402
REMARK  161  A    between atoms: _401  and  _404
REMARK  162  A    between atoms: _404  and  _405
REMARK  163  A    between atoms: _415  and  _417
REMARK  164  A    between atoms: _417  and  _418
REMARK  165  A    between atoms: _417  and  _420
REMARK  166  A    between atoms: _420  and  _421
REMARK  167  A    between atoms: _426  and  _427
REMARK  168  A    between atoms: _429  and  _431
REMARK  169  A    between atoms: _431  and  _432
REMARK  170  A    between atoms: _431  and  _434
REMARK  171  A    between atoms: _434  and  _435
REMARK  172  A    between atoms: _435  and  _436
REMARK  173  A    between atoms: _436  and  _437
REMARK  174  A    between atoms: _437  and  _438
REMARK  175  A    between atoms: _442  and  _444
REMARK  176  A    between atoms: _444  and  _445
REMARK  177  A    between atoms: _444  and  _447
REMARK  178  A    between atoms: _447  and  _448
REMARK  179  A    between atoms: _451  and  _453
REMARK  180  A    between atoms: _453  and  _454
REMARK  181  A    between atoms: _453  and  _456
REMARK  182  A    between atoms: _459  and  _461
REMARK  183  A    between atoms: _461  and  _462
REMARK  184  A    between atoms: _461  and  _464
REMARK  185  A    between atoms: _464  and  _465
REMARK  186  A    between atoms: _468  and  _470
REMARK  187  A    between atoms: _470  and  _471
REMARK  188  A    between atoms: _470  and  _473
REMARK  189  A    between atoms: _473  and  _474
REMARK  190  A    between atoms: _476  and  _478
REMARK  191  A    between atoms: _478  and  _479
REMARK  192  A    between atoms: _481  and  _483
REMARK  193  A    between atoms: _483  and  _484
REMARK  194  A    between atoms: _483  and  _486
REMARK  195  A    between atoms: _486  and  _487
REMARK  196  A    between atoms: _490  and  _492
REMARK  197  A    between atoms: _492  and  _493
REMARK  198  A    between atoms: _492  and  _495
REMARK  199  A    between atoms: _495  and  _496
REMARK  200  A    between atoms: _499  and  _501
REMARK  201  A    between atoms: _501  and  _502
REMARK  202  A    between atoms: _501  and  _504
REMARK  203  A    between atoms: _504  and  _505
REMARK  204  A    between atoms: _510  and  _512
REMARK  205  A    between atoms: _512  and  _513
REMARK  206  A    between atoms: _512  and  _515
REMARK  207  A    between atoms: _515  and  _516
REMARK  208  A    between atoms: _516  and  _517
REMARK  209  A    between atoms: _517  and  _518
REMARK  210  A    between atoms: _527  and  _529
REMARK  211  A    between atoms: _529  and  _530
REMARK  212  A    between atoms: _529  and  _532
REMARK  213  A    between atoms: _532  and  _533
REMARK  214  A    between atoms: _533  and  _534
REMARK  215  A    between atoms: _534  and  _535
REMARK  216  A    between atoms: _544  and  _546
REMARK  217  A    between atoms: _546  and  _547
REMARK  218  A    between atoms: _546  and  _549
REMARK  219  A    between atoms: _549  and  _550
REMARK  220  A    between atoms: _552  and  _554
REMARK  221  A    between atoms: _554  and  _555
REMARK  222  A    between atoms: _554  and  _557
REMARK  223  A    between atoms: _557  and  _558
REMARK  224  A    between atoms: _560  and  _562
REMARK  225  A    between atoms: _562  and  _563
REMARK  226  A    between atoms: _562  and  _565
REMARK  227  A    between atoms: _565  and  _566
REMARK  228  A    between atoms: _569  and  _571
REMARK  229  A    between atoms: _571  and  _572
REMARK  230  A    between atoms: _571  and  _574
REMARK  231  A    between atoms: _574  and  _575
REMARK  232  A    between atoms: _578  and  _580
REMARK  233  A    between atoms: _580  and  _581
REMARK  234  A    between atoms: _580  and  _583
REMARK  235  A    between atoms: _586  and  _588
REMARK  236  A    between atoms: _588  and  _589
REMARK  237  A    between atoms: _591  and  _593
REMARK  238  A    between atoms: _593  and  _594
REMARK  239  A    between atoms: _597  and  _599
REMARK  240  A    between atoms: _599  and  _600
REMARK  241  A    between atoms: _599  and  _602
REMARK                            x       y       z     vdW  Elec       q    Type
REMARK                         _______ _______ _______ _____ _____    ______ ____
ROOT
ATOM      1  C   THR A   1      19.140   3.985  44.247  0.00  0.00    +0.241 C 
ATOM      2  N   VAL A   2      17.879   4.401  44.317  0.00  0.00    -0.298 N 
ATOM      3  H   VAL A   2      17.681   5.345  44.707  0.00  0.00    +0.150 HD
ATOM      4  O   THR A   1      19.459   2.839  43.920  0.00  0.00    -0.274 OA
ENDROOT
BRANCH   1   5
ATOM      5  CA  THR A   1      20.199   5.017  44.610  0.00  0.00    +0.172 C 
BRANCH   5   6
ATOM      6  N   THR A   1      21.185   4.467  45.535  0.00  0.00    -0.236 NA
ATOM      7  H   THR A   1      22.150   4.290  45.191  0.00  0.00    +0.142 HD
ENDBRANCH   5   6
BRANCH   5   8
ATOM      8  CB  THR A   1      20.885   5.554  43.330  0.00  0.00    +0.135 C 
ATOM      9  CG2 THR A   1      19.868   6.188  42.387  0.00  0.00    +0.034 C 
BRANCH   8  10
ATOM     10  OG1 THR A   1      21.744   6.650  43.666  0.00  0.00    -0.383 OA
ATOM     11  HG1 THR A   1      22.180   6.990  42.845  0.00  0.00    +0.210 HD
ENDBRANCH   8  10
ENDBRANCH   5   8
ENDBRANCH   1   5
BRANCH   2  12
ATOM     12  CA  VAL A   2      16.766   3.576  43.865  0.00  0.00    +0.137 C 
BRANCH  12  13
ATOM     13  CB  VAL A   2      15.793   3.219  45.017  0.00  0.00    +0.026 C 
ATOM     14  CG2 VAL A   2      16.538   2.596  46.198  0.00  0.00    +0.002 C 
ATOM     15  CG1 VAL A   2      14.702   2.284  44.525  0.00  0.00    +0.002 C 
ENDBRANCH  12  13
BRANCH  12  16
ATOM     16  C   VAL A   2      16.023   4.297  42.742  0.00  0.00    +0.227 C 
ATOM     17  O   VAL A   2      15.412   5.348  42.955  0.00  0.00    -0.286 OA
ENDBRANCH  12  16
ENDBRANCH   2  12
TORSDOF 7
REMARK  Name = ../refined-set-2016/2fdp/2fdp_pocket.pdb
REMARK  241 active torsions:
REMARK  status: ('A' for Active; 'I' for Inactive)
REMARK    1  A    between atoms: _1  and  _3
REMARK    2  A    between atoms: _3  and  _4
REMARK    3  A    between atoms: _3  and  _6
REMARK    4  A    between atoms: _6  and  _7
REMARK    5  A    between atoms: _7  and  _8
REMARK    6  A    between atoms: _8  and  _9
REMARK    7  A    between atoms: _9  and  _10
REMARK    8  A    between atoms: _14  and  _16
REMARK    9  A    between atoms: _16  and  _17
REMARK   10  A    between atoms: _16  and  _19
REMARK   11  A    between atoms: _19  and  _20
REMARK   12  A    between atoms: _22  and  _24
REMARK   13  A    between atoms: _24  and  _25
REMARK   14  A    between atoms: _27  and  _29
REMARK   15  A    between atoms: _29  and  _30
REMARK   16  A    between atoms: _29  and  _32
REMARK   17  A    between atoms: _32  and  _33
REMARK   18  A    between atoms: _33  and  _34
REMARK   19  A    between atoms: _39  and  _41
REMARK   20  A    between atoms: _41  and  _42
REMARK   21  A    between atoms: _44  and  _46
REMARK   22  A    between atoms: _46  and  _47
REMARK   23  A    between atoms: _46  and  _49
REMARK   24  A    between atoms: _49  and  _50
REMARK   25  A    between atoms: _55  and  _56
REMARK   26  A    between atoms: _58  and  _60
REMARK   27  A    between atoms: _60  and  _61
REMARK   28  A    between atoms: _60  and  _63
REMARK   29  A    between atoms: _63  and  _64
REMARK   30  A    between atoms: _67  and  _69
REMARK   31  A    between atoms: _69  and  _70
REMARK   32  A    between atoms: _69  and  _72
REMARK   33  A    between atoms: _75  and  _77
REMARK   34  A    between atoms: _77  and  _78
REMARK   35  A    between atoms: _77  and  _80
REMARK   36  A    between atoms: _80  and  _81
REMARK   37  A    between atoms: _84  and  _86
REMARK   38  A    between atoms: _86  and  _87
REMARK   39  A    between atoms: _86  and  _89
REMARK   40  A    between atoms: _89  and  _90
REMARK   41  A    between atoms: _93  and  _95
REMARK   42  A    between atoms: _95  and  _96
REMARK   43  A    between atoms: _98  and  _100
REMARK   44  A    between atoms: _100  and  _101
REMARK   45  A    between atoms: _100  and  _103
REMARK   46  A    between atoms: _103  and  _104
REMARK   47  A    between atoms: _106  and  _108
REMARK   48  A    between atoms: _108  and  _109
REMARK   49  A    between atoms: _108  and  _111
REMARK   50  A    between atoms: _111  and  _112
REMARK   51  A    between atoms: _114  and  _116
REMARK   52  A    between atoms: _116  and  _117
REMARK   53  A    between atoms: _116  and  _119
REMARK   54  A    between atoms: _119  and  _120
REMARK   55  A    between atoms: _125  and  _127
REMARK   56  A    between atoms: _127  and  _128
REMARK   57  A    between atoms: _127  and  _130
REMARK   58  A    between atoms: _130  and  _131
REMARK   59  A    between atoms: _136  and  _137
REMARK   60  A    between atoms: _139  and  _141
REMARK   61  A    between atoms: _141  and  _142
REMARK   62  A    between atoms: _141  and  _144
REMARK   63  A    between atoms: _148  and  _149
REMARK   64  A    between atoms: _154  and  _156
REMARK   65  A    between atoms: _156  and  _157
REMARK   66  A    between atoms: _156  and  _159
REMARK   67  A    between atoms: _159  and  _160
REMARK   68  A    between atoms: _165  and  _166
REMARK   69  A    between atoms: _168  and  _170
REMARK   70  A    between atoms: _170  and  _171
REMARK   71  A    between atoms: _170  and  _173
REMARK   72  A    between atoms: _173  and  _174
REMARK   73  A    between atoms: _177  and  _179
REMARK   74  A    between atoms: _179  and  _180
REMARK   75  A    between atoms: _179  and  _182
REMARK   76  A    between atoms: _182  and  _183
REMARK   77  A    between atoms: _183  and  _184
REMARK   78  A    between atoms: _189  and  _191
REMARK   79  A    between atoms: _191  and  _192
REMARK   80  A    between atoms: _194  and  _196
REMARK   81  A    between atoms: _196  and  _197
REMARK   82  A    between atoms: _196  and  _199
REMARK   83  A    between atoms: _199  and  _200
REMARK   84  A    between atoms: _200  and  _201
REMARK   85  A    between atoms: _201  and  _202
REMARK   86  A    between atoms: _202  and  _203
REMARK   87  A    between atoms: _207  and  _209
REMARK   88  A    between atoms: _209  and  _210
REMARK   89  A    between atoms: _209  and  _212
REMARK   90  A    between atoms: _212  and  _213
REMARK   91  A    between atoms: _223  and  _225
REMARK   92  A    between atoms: _225  and  _226
REMARK   93  A    between atoms: _225  and  _228
REMARK   94  A    between atoms: _228  and  _229
REMARK   95  A    between atoms: _232  and  _234
REMARK   96  A    between atoms: _234  and  _235
REMARK   97  A    between atoms: _234  and  _237
REMARK   98  A    between atoms: _237  and  _238
REMARK   99  A    between atoms: _238  and  _239
REMARK  100  A    between atoms: _239  and  _240
REMARK  101  A    between atoms: _240  and  _241
REMARK  102  A    between atoms: _245  and  _247
REMARK  103  A    between atoms: _247  and  _248
REMARK  104  A    between atoms: _247  and  _250
REMARK  105  A    between atoms: _250  and  _251
REMARK  106  A    between atoms: _257  and  _259
REMARK  107  A    between atoms: _259  and  _260
REMARK  108  A    between atoms: _259  and  _262
REMARK  109  A    between atoms: _262  and  _263
REMARK  110  A    between atoms: _269  and  _271
REMARK  111  A    between atoms: _271  and  _272
REMARK  112  A    between atoms: _271  and  _274
REMARK  113  A    between atoms: _274  and  _275
REMARK  114  A    between atoms: _278  and  _280
REMARK  115  A    between atoms: _280  and  _281
REMARK  116  A    between atoms: _280  and  _283
REMARK  117  A    between atoms: _283  and  _284
REMARK  118  A    between atoms: _286  and  _288
REMARK  119  A    between atoms: _288  and  _289
REMARK  120  A    between atoms: _288  and  _291
REMARK  121  A    between atoms: _291  and  _292
REMARK  122  A    between atoms: _302  and  _304
REMARK  123  A    between atoms: _304  and  _305
REMARK  124  A    between atoms: _307  and  _309
REMARK  125  A    between atoms: _309  and  _310
REMARK  126  A    between atoms: _309  and  _312
REMARK  127  A    between atoms: _312  and  _313
REMARK  128  A    between atoms: _316  and  _318
REMARK  129  A    between atoms: _318  and  _319
REMARK  130  A    between atoms: _318  and  _321
REMARK  131  A    between atoms: _321  and  _322
REMARK  132  A    between atoms: _325  and  _327
REMARK  133  A    between atoms: _327  and  _328
REMARK  134  A    between atoms: _330  and  _332
REMARK  135  A    between atoms: _332  and  _333
REMARK  136  A    between atoms: _336  and  _338
REMARK  137  A    between atoms: _338  and  _339
REMARK  138  A    between atoms: _338  and  _341
REMARK  139  A    between atoms: _341  and  _342
REMARK  140  A    between atoms: _347  and  _348
REMARK  141  A    between atoms: _350  and  _352
REMARK  142  A    between atoms: _352  and  _353
REMARK  143  A    between atoms: _352  and  _355
REMARK  144  A    between atoms: _355  and  _356
REMARK  145  A    between atoms: _356  and  _357
REMARK  146  A    between atoms: _360  and  _362
REMARK  147  A    between atoms: _362  and  _363
REMARK  148  A    between atoms: _362  and  _365
REMARK  149  A    between atoms: _365  and  _366
REMARK  150  A    between atoms: _369  and  _371
REMARK  151  A    between atoms: _371  and  _372
REMARK  152  A    between atoms: _375  and  _377
REMARK  153  A    between atoms: _377  and  _378
REMARK  154  A    between atoms: _377  and  _380
REMARK  155  A    between atoms: _380  and  _381
REMARK  156  A    between atoms: _381  and  _382
REMARK  157  A    between atoms: _382  and  _383
REMARK  158  A    between atoms: _393  and  _394
REMARK  159  A    between atoms: _399  and  _401
REMARK  160  A    between atoms: _401  and  _402
REMARK  161  A    between atoms: _401  and  _404
REMARK  162  A    between atoms: _404  and  _405
REMARK  163  A    between atoms: _415  and  _417
REMARK  164  A    between atoms: _417  and  _418
REMARK  165  A    between atoms: _417  and  _420
REMARK  166  A    between atoms: _420  and  _421
REMARK  167  A    between atoms: _426  and  _427
REMARK  168  A    between atoms: _429  and  _431
REMARK  169  A    between atoms: _431  and  _432
REMARK  170  A    between atoms: _431  and  _434
REMARK  171  A    between atoms: _434  and  _435
REMARK  172  A    between atoms: _435  and  _436
REMARK  173  A    between atoms: _436  and  _437
REMARK  174  A    between atoms: _437  and  _438
REMARK  175  A    between atoms: _442  and  _444
REMARK  176  A    between atoms: _444  and  _445
REMARK  177  A    between atoms: _444  and  _447
REMARK  178  A    between atoms: _447  and  _448
REMARK  179  A    between atoms: _451  and  _453
REMARK  180  A    between atoms: _453  and  _454
REMARK  181  A    between atoms: _453  and  _456
REMARK  182  A    between atoms: _459  and  _461
REMARK  183  A    between atoms: _461  and  _462
REMARK  184  A    between atoms: _461  and  _464
REMARK  185  A    between atoms: _464  and  _465
REMARK  186  A    between atoms: _468  and  _470
REMARK  187  A    between atoms: _470  and  _471
REMARK  188  A    between atoms: _470  and  _473
REMARK  189  A    between atoms: _473  and  _474
REMARK  190  A    between atoms: _476  and  _478
REMARK  191  A    between atoms: _478  and  _479
REMARK  192  A    between atoms: _481  and  _483
REMARK  193  A    between atoms: _483  and  _484
REMARK  194  A    between atoms: _483  and  _486
REMARK  195  A    between atoms: _486  and  _487
REMARK  196  A    between atoms: _490  and  _492
REMARK  197  A    between atoms: _492  and  _493
REMARK  198  A    between atoms: _492  and  _495
REMARK  199  A    between atoms: _495  and  _496
REMARK  200  A    between atoms: _499  and  _501
REMARK  201  A    between atoms: _501  and  _502
REMARK  202  A    between atoms: _501  and  _504
REMARK  203  A    between atoms: _504  and  _505
REMARK  204  A    between atoms: _510  and  _512
REMARK  205  A    between atoms: _512  and  _513
REMARK  206  A    between atoms: _512  and  _515
REMARK  207  A    between atoms: _515  and  _516
REMARK  208  A    between atoms: _516  and  _517
REMARK  209  A    between atoms: _517  and  _518
REMARK  210  A    between atoms: _527  and  _529
REMARK  211  A    between atoms: _529  and  _530
REMARK  212  A    between atoms: _529  and  _532
REMARK  213  A    between atoms: _532  and  _533
REMARK  214  A    between atoms: _533  and  _534
REMARK  215  A    between atoms: _534  and  _535
REMARK  216  A    between atoms: _544  and  _546
REMARK  217  A    between atoms: _546  and  _547
REMARK  218  A    between atoms: _546  and  _549
REMARK  219  A    between atoms: _549  and  _550
REMARK  220  A    between atoms: _552  and  _554
REMARK  221  A    between atoms: _554  and  _555
REMARK  222  A    between atoms: _554  and  _557
REMARK  223  A    between atoms: _557  and  _558
REMARK  224  A    between atoms: _560  and  _562
REMARK  225  A    between atoms: _562  and  _563
REMARK  226  A    between atoms: _562  and  _565
REMARK  227  A    between atoms: _565  and  _566
REMARK  228  A    between atoms: _569  and  _571
REMARK  229  A    between atoms: _571  and  _572
REMARK  230  A    between atoms: _571  and  _574
REMARK  231  A    between atoms: _574  and  _575
REMARK  232  A    between atoms: _578  and  _580
REMARK  233  A    between atoms: _580  and  _581
REMARK  234  A    between atoms: _580  and  _583
REMARK  235  A    between atoms: _586  and  _588
REMARK  236  A    between atoms: _588  and  _589
REMARK  237  A    between atoms: _591  and  _593
REMARK  238  A    between atoms: _593  and  _594
REMARK  239  A    between atoms: _597  and  _599
REMARK  240  A    between atoms: _599  and  _600
REMARK  241  A    between atoms: _599  and  _602
REMARK                            x       y       z     vdW  Elec       q    Type
REMARK                         _______ _______ _______ _____ _____    ______ ____
ROOT
ATOM      1  C   ALA A   2       8.628   5.743  38.681  0.00  0.00    +0.241 C 
ATOM      2  N   VAL A   3       8.878   6.741  39.529  0.00  0.00    -0.298 N 
ATOM      3  H   VAL A   3       8.887   6.530  40.547  0.00  0.00    +0.150 HD
ATOM      4  O   ALA A   2       8.525   5.897  37.467  0.00  0.00    -0.273 OA
ENDROOT
BRANCH   1   5
ATOM      5  CA  ALA A   2       8.487   4.351  39.292  0.00  0.00    +0.149 C 
ATOM      6  CB  ALA A   2       7.090   4.153  39.864  0.00  0.00    +0.031 C 
BRANCH   5   8
ATOM      7  C   GLY A   1      10.811   4.194  40.077  0.00  0.00    +0.240 C 
ATOM      8  N   ALA A   2       9.502   4.100  40.316  0.00  0.00    -0.297 N 
ATOM      9  H   ALA A   2       9.189   3.837  41.272  0.00  0.00    +0.150 HD
ATOM     10  O   GLY A   1      11.283   4.495  38.975  0.00  0.00    -0.274 OA
BRANCH   7  11
ATOM     11  CA  GLY A   1      11.713   3.900  41.262  0.00  0.00    +0.169 C 
BRANCH  11  12
ATOM     12  N   GLY A   1      13.084   4.355  41.121  0.00  0.00    -0.236 NA
ATOM     13  H   GLY A   1      13.382   5.214  41.625  0.00  0.00    +0.142 HD
ENDBRANCH  11  12
ENDBRANCH   7  11
ENDBRANCH   5   8
ENDBRANCH   1   5
BRANCH   2  14
ATOM     14  CA  VAL A   3       9.141   8.119  39.105  0.00  0.00    +0.137 C 
BRANCH  14  15
ATOM     15  CB  VAL A   3       9.750   8.946  40.274  0.00  0.00    +0.026 C 
ATOM     16  CG2 VAL A   3       8.682   9.281  41.296  0.00  0.00    +0.002 C 
ATOM     17  CG1 VAL A   3      10.433  10.224  39.776  0.00  0.00    +0.002 C 
ENDBRANCH  14  15
BRANCH  14  18
ATOM     18  C   VAL A   3      10.059   8.165  37.879  0.00  0.00    +0.227 C 
ATOM     19  O   VAL A   3       9.765   8.844  36.890  0.00  0.00    -0.286 OA
ENDBRANCH  14  18
ENDBRANCH   2  14
TORSDOF 7
REMARK  Name = ../refined-set-2016/2fdp/2fdp_pocket.pdb
REMARK  241 active torsions:
REMARK  status: ('A' for Active; 'I' for Inactive)
REMARK    1  A    between atoms: _1  and  _3
REMARK    2  A    between atoms: _3  and  _4
REMARK    3  A    between atoms: _3  and  _6
REMARK    4  A    between atoms: _6  and  _7
REMARK    5  A    between atoms: _7  and  _8
REMARK    6  A    between atoms: _8  and  _9
REMARK    7  A    between atoms: _9  and  _10
REMARK    8  A    between atoms: _14  and  _16
REMARK    9  A    between atoms: _16  and  _17
REMARK   10  A    between atoms: _16  and  _19
REMARK   11  A    between atoms: _19  and  _20
REMARK   12  A    between atoms: _22  and  _24
REMARK   13  A    between atoms: _24  and  _25
REMARK   14  A    between atoms: _27  and  _29
REMARK   15  A    between atoms: _29  and  _30
REMARK   16  A    between atoms: _29  and  _32
REMARK   17  A    between atoms: _32  and  _33
REMARK   18  A    between atoms: _33  and  _34
REMARK   19  A    between atoms: _39  and  _41
REMARK   20  A    between atoms: _41  and  _42
REMARK   21  A    between atoms: _44  and  _46
REMARK   22  A    between atoms: _46  and  _47
REMARK   23  A    between atoms: _46  and  _49
REMARK   24  A    between atoms: _49  and  _50
REMARK   25  A    between atoms: _55  and  _56
REMARK   26  A    between atoms: _58  and  _60
REMARK   27  A    between atoms: _60  and  _61
REMARK   28  A    between atoms: _60  and  _63
REMARK   29  A    between atoms: _63  and  _64
REMARK   30  A    between atoms: _67  and  _69
REMARK   31  A    between atoms: _69  and  _70
REMARK   32  A    between atoms: _69  and  _72
REMARK   33  A    between atoms: _75  and  _77
REMARK   34  A    between atoms: _77  and  _78
REMARK   35  A    between atoms: _77  and  _80
REMARK   36  A    between atoms: _80  and  _81
REMARK   37  A    between atoms: _84  and  _86
REMARK   38  A    between atoms: _86  and  _87
REMARK   39  A    between atoms: _86  and  _89
REMARK   40  A    between atoms: _89  and  _90
REMARK   41  A    between atoms: _93  and  _95
REMARK   42  A    between atoms: _95  and  _96
REMARK   43  A    between atoms: _98  and  _100
REMARK   44  A    between atoms: _100  and  _101
REMARK   45  A    between atoms: _100  and  _103
REMARK   46  A    between atoms: _103  and  _104
REMARK   47  A    between atoms: _106  and  _108
REMARK   48  A    between atoms: _108  and  _109
REMARK   49  A    between atoms: _108  and  _111
REMARK   50  A    between atoms: _111  and  _112
REMARK   51  A    between atoms: _114  and  _116
REMARK   52  A    between atoms: _116  and  _117
REMARK   53  A    between atoms: _116  and  _119
REMARK   54  A    between atoms: _119  and  _120
REMARK   55  A    between atoms: _125  and  _127
REMARK   56  A    between atoms: _127  and  _128
REMARK   57  A    between atoms: _127  and  _130
REMARK   58  A    between atoms: _130  and  _131
REMARK   59  A    between atoms: _136  and  _137
REMARK   60  A    between atoms: _139  and  _141
REMARK   61  A    between atoms: _141  and  _142
REMARK   62  A    between atoms: _141  and  _144
REMARK   63  A    between atoms: _148  and  _149
REMARK   64  A    between atoms: _154  and  _156
REMARK   65  A    between atoms: _156  and  _157
REMARK   66  A    between atoms: _156  and  _159
REMARK   67  A    between atoms: _159  and  _160
REMARK   68  A    between atoms: _165  and  _166
REMARK   69  A    between atoms: _168  and  _170
REMARK   70  A    between atoms: _170  and  _171
REMARK   71  A    between atoms: _170  and  _173
REMARK   72  A    between atoms: _173  and  _174
REMARK   73  A    between atoms: _177  and  _179
REMARK   74  A    between atoms: _179  and  _180
REMARK   75  A    between atoms: _179  and  _182
REMARK   76  A    between atoms: _182  and  _183
REMARK   77  A    between atoms: _183  and  _184
REMARK   78  A    between atoms: _189  and  _191
REMARK   79  A    between atoms: _191  and  _192
REMARK   80  A    between atoms: _194  and  _196
REMARK   81  A    between atoms: _196  and  _197
REMARK   82  A    between atoms: _196  and  _199
REMARK   83  A    between atoms: _199  and  _200
REMARK   84  A    between atoms: _200  and  _201
REMARK   85  A    between atoms: _201  and  _202
REMARK   86  A    between atoms: _202  and  _203
REMARK   87  A    between atoms: _207  and  _209
REMARK   88  A    between atoms: _209  and  _210
REMARK   89  A    between atoms: _209  and  _212
REMARK   90  A    between atoms: _212  and  _213
REMARK   91  A    between atoms: _223  and  _225
REMARK   92  A    between atoms: _225  and  _226
REMARK   93  A    between atoms: _225  and  _228
REMARK   94  A    between atoms: _228  and  _229
REMARK   95  A    between atoms: _232  and  _234
REMARK   96  A    between atoms: _234  and  _235
REMARK   97  A    between atoms: _234  and  _237
REMARK   98  A    between atoms: _237  and  _238
REMARK   99  A    between atoms: _238  and  _239
REMARK  100  A    between atoms: _239  and  _240
REMARK  101  A    between atoms: _240  and  _241
REMARK  102  A    between atoms: _245  and  _247
REMARK  103  A    between atoms: _247  and  _248
REMARK  104  A    between atoms: _247  and  _250
REMARK  105  A    between atoms: _250  and  _251
REMARK  106  A    between atoms: _257  and  _259
REMARK  107  A    between atoms: _259  and  _260
REMARK  108  A    between atoms: _259  and  _262
REMARK  109  A    between atoms: _262  and  _263
REMARK  110  A    between atoms: _269  and  _271
REMARK  111  A    between atoms: _271  and  _272
REMARK  112  A    between atoms: _271  and  _274
REMARK  113  A    between atoms: _274  and  _275
REMARK  114  A    between atoms: _278  and  _280
REMARK  115  A    between atoms: _280  and  _281
REMARK  116  A    between atoms: _280  and  _283
REMARK  117  A    between atoms: _283  and  _284
REMARK  118  A    between atoms: _286  and  _288
REMARK  119  A    between atoms: _288  and  _289
REMARK  120  A    between atoms: _288  and  _291
REMARK  121  A    between atoms: _291  and  _292
REMARK  122  A    between atoms: _302  and  _304
REMARK  123  A    between atoms: _304  and  _305
REMARK  124  A    between atoms: _307  and  _309
REMARK  125  A    between atoms: _309  and  _310
REMARK  126  A    between atoms: _309  and  _312
REMARK  127  A    between atoms: _312  and  _313
REMARK  128  A    between atoms: _316  and  _318
REMARK  129  A    between atoms: _318  and  _319
REMARK  130  A    between atoms: _318  and  _321
REMARK  131  A    between atoms: _321  and  _322
REMARK  132  A    between atoms: _325  and  _327
REMARK  133  A    between atoms: _327  and  _328
REMARK  134  A    between atoms: _330  and  _332
REMARK  135  A    between atoms: _332  and  _333
REMARK  136  A    between atoms: _336  and  _338
REMARK  137  A    between atoms: _338  and  _339
REMARK  138  A    between atoms: _338  and  _341
REMARK  139  A    between atoms: _341  and  _342
REMARK  140  A    between atoms: _347  and  _348
REMARK  141  A    between atoms: _350  and  _352
REMARK  142  A    between atoms: _352  and  _353
REMARK  143  A    between atoms: _352  and  _355
REMARK  144  A    between atoms: _355  and  _356
REMARK  145  A    between atoms: _356  and  _357
REMARK  146  A    between atoms: _360  and  _362
REMARK  147  A    between atoms: _362  and  _363
REMARK  148  A    between atoms: _362  and  _365
REMARK  149  A    between atoms: _365  and  _366
REMARK  150  A    between atoms: _369  and  _371
REMARK  151  A    between atoms: _371  and  _372
REMARK  152  A    between atoms: _375  and  _377
REMARK  153  A    between atoms: _377  and  _378
REMARK  154  A    between atoms: _377  and  _380
REMARK  155  A    between atoms: _380  and  _381
REMARK  156  A    between atoms: _381  and  _382
REMARK  157  A    between atoms: _382  and  _383
REMARK  158  A    between atoms: _393  and  _394
REMARK  159  A    between atoms: _399  and  _401
REMARK  160  A    between atoms: _401  and  _402
REMARK  161  A    between atoms: _401  and  _404
REMARK  162  A    between atoms: _404  and  _405
REMARK  163  A    between atoms: _415  and  _417
REMARK  164  A    between atoms: _417  and  _418
REMARK  165  A    between atoms: _417  and  _420
REMARK  166  A    between atoms: _420  and  _421
REMARK  167  A    between atoms: _426  and  _427
REMARK  168  A    between atoms: _429  and  _431
REMARK  169  A    between atoms: _431  and  _432
REMARK  170  A    between atoms: _431  and  _434
REMARK  171  A    between atoms: _434  and  _435
REMARK  172  A    between atoms: _435  and  _436
REMARK  173  A    between atoms: _436  and  _437
REMARK  174  A    between atoms: _437  and  _438
REMARK  175  A    between atoms: _442  and  _444
REMARK  176  A    between atoms: _444  and  _445
REMARK  177  A    between atoms: _444  and  _447
REMARK  178  A    between atoms: _447  and  _448
REMARK  179  A    between atoms: _451  and  _453
REMARK  180  A    between atoms: _453  and  _454
REMARK  181  A    between atoms: _453  and  _456
REMARK  182  A    between atoms: _459  and  _461
REMARK  183  A    between atoms: _461  and  _462
REMARK  184  A    between atoms: _461  and  _464
REMARK  185  A    between atoms: _464  and  _465
REMARK  186  A    between atoms: _468  and  _470
REMARK  187  A    between atoms: _470  and  _471
REMARK  188  A    between atoms: _470  and  _473
REMARK  189  A    between atoms: _473  and  _474
REMARK  190  A    between atoms: _476  and  _478
REMARK  191  A    between atoms: _478  and  _479
REMARK  192  A    between atoms: _481  and  _483
REMARK  193  A    between atoms: _483  and  _484
REMARK  194  A    between atoms: _483  and  _486
REMARK  195  A    between atoms: _486  and  _487
REMARK  196  A    between atoms: _490  and  _492
REMARK  197  A    between atoms: _492  and  _493
REMARK  198  A    between atoms: _492  and  _495
REMARK  199  A    between atoms: _495  and  _496
REMARK  200  A    between atoms: _499  and  _501
REMARK  201  A    between atoms: _501  and  _502
REMARK  202  A    between atoms: _501  and  _504
REMARK  203  A    between atoms: _504  and  _505
REMARK  204  A    between atoms: _510  and  _512
REMARK  205  A    between atoms: _512  and  _513
REMARK  206  A    between atoms: _512  and  _515
REMARK  207  A    between atoms: _515  and  _516
REMARK  208  A    between atoms: _516  and  _517
REMARK  209  A    between atoms: _517  and  _518
REMARK  210  A    between atoms: _527  and  _529
REMARK  211  A    between atoms: _529  and  _530
REMARK  212  A    between atoms: _529  and  _532
REMARK  213  A    between atoms: _532  and  _533
REMARK  214  A    between atoms: _533  and  _534
REMARK  215  A    between atoms: _534  and  _535
REMARK  216  A    between atoms: _544  and  _546
REMARK  217  A    between atoms: _546  and  _547
REMARK  218  A    between atoms: _546  and  _549
REMARK  219  A    between atoms: _549  and  _550
REMARK  220  A    between atoms: _552  and  _554
REMARK  221  A    between atoms: _554  and  _555
REMARK  222  A    between atoms: _554  and  _557
REMARK  223  A    between atoms: _557  and  _558
REMARK  224  A    between atoms: _560  and  _562
REMARK  225  A    between atoms: _562  and  _563
REMARK  226  A    between atoms: _562  and  _565
REMARK  227  A    between atoms: _565  and  _566
REMARK  228  A    between atoms: _569  and  _571
REMARK  229  A    between atoms: _571  and  _572
REMARK  230  A    between atoms: _571  and  _574
REMARK  231  A    between atoms: _574  and  _575
REMARK  232  A    between atoms: _578  and  _580
REMARK  233  A    between atoms: _580  and  _581
REMARK  234  A    between atoms: _580  and  _583
REMARK  235  A    between atoms: _586  and  _588
REMARK  236  A    between atoms: _588  and  _589
REMARK  237  A    between atoms: _591  and  _593
REMARK  238  A    between atoms: _593  and  _594
REMARK  239  A    between atoms: _597  and  _599
REMARK  240  A    between atoms: _599  and  _600
REMARK  241  A    between atoms: _599  and  _602
REMARK                            x       y       z     vdW  Elec       q    Type
REMARK                         _______ _______ _______ _____ _____    ______ ____
ROOT
ATOM      1  O   HOH     1       9.889 -10.416  47.034  0.00  0.00    +0.000 OA
ENDROOT
TORSDOF 0
REMARK  Name = ../refined-set-2016/2fdp/2fdp_pocket.pdb
REMARK  241 active torsions:
REMARK  status: ('A' for Active; 'I' for Inactive)
REMARK    1  A    between atoms: _1  and  _3
REMARK    2  A    between atoms: _3  and  _4
REMARK    3  A    between atoms: _3  and  _6
REMARK    4  A    between atoms: _6  and  _7
REMARK    5  A    between atoms: _7  and  _8
REMARK    6  A    between atoms: _8  and  _9
REMARK    7  A    between atoms: _9  and  _10
REMARK    8  A    between atoms: _14  and  _16
REMARK    9  A    between atoms: _16  and  _17
REMARK   10  A    between atoms: _16  and  _19
REMARK   11  A    between atoms: _19  and  _20
REMARK   12  A    between atoms: _22  and  _24
REMARK   13  A    between atoms: _24  and  _25
REMARK   14  A    between atoms: _27  and  _29
REMARK   15  A    between atoms: _29  and  _30
REMARK   16  A    between atoms: _29  and  _32
REMARK   17  A    between atoms: _32  and  _33
REMARK   18  A    between atoms: _33  and  _34
REMARK   19  A    between atoms: _39  and  _41
REMARK   20  A    between atoms: _41  and  _42
REMARK   21  A    between atoms: _44  and  _46
REMARK   22  A    between atoms: _46  and  _47
REMARK   23  A    between atoms: _46  and  _49
REMARK   24  A    between atoms: _49  and  _50
REMARK   25  A    between atoms: _55  and  _56
REMARK   26  A    between atoms: _58  and  _60
REMARK   27  A    between atoms: _60  and  _61
REMARK   28  A    between atoms: _60  and  _63
REMARK   29  A    between atoms: _63  and  _64
REMARK   30  A    between atoms: _67  and  _69
REMARK   31  A    between atoms: _69  and  _70
REMARK   32  A    between atoms: _69  and  _72
REMARK   33  A    between atoms: _75  and  _77
REMARK   34  A    between atoms: _77  and  _78
REMARK   35  A    between atoms: _77  and  _80
REMARK   36  A    between atoms: _80  and  _81
REMARK   37  A    between atoms: _84  and  _86
REMARK   38  A    between atoms: _86  and  _87
REMARK   39  A    between atoms: _86  and  _89
REMARK   40  A    between atoms: _89  and  _90
REMARK   41  A    between atoms: _93  and  _95
REMARK   42  A    between atoms: _95  and  _96
REMARK   43  A    between atoms: _98  and  _100
REMARK   44  A    between atoms: _100  and  _101
REMARK   45  A    between atoms: _100  and  _103
REMARK   46  A    between atoms: _103  and  _104
REMARK   47  A    between atoms: _106  and  _108
REMARK   48  A    between atoms: _108  and  _109
REMARK   49  A    between atoms: _108  and  _111
REMARK   50  A    between atoms: _111  and  _112
REMARK   51  A    between atoms: _114  and  _116
REMARK   52  A    between atoms: _116  and  _117
REMARK   53  A    between atoms: _116  and  _119
REMARK   54  A    between atoms: _119  and  _120
REMARK   55  A    between atoms: _125  and  _127
REMARK   56  A    between atoms: _127  and  _128
REMARK   57  A    between atoms: _127  and  _130
REMARK   58  A    between atoms: _130  and  _131
REMARK   59  A    between atoms: _136  and  _137
REMARK   60  A    between atoms: _139  and  _141
REMARK   61  A    between atoms: _141  and  _142
REMARK   62  A    between atoms: _141  and  _144
REMARK   63  A    between atoms: _148  and  _149
REMARK   64  A    between atoms: _154  and  _156
REMARK   65  A    between atoms: _156  and  _157
REMARK   66  A    between atoms: _156  and  _159
REMARK   67  A    between atoms: _159  and  _160
REMARK   68  A    between atoms: _165  and  _166
REMARK   69  A    between atoms: _168  and  _170
REMARK   70  A    between atoms: _170  and  _171
REMARK   71  A    between atoms: _170  and  _173
REMARK   72  A    between atoms: _173  and  _174
REMARK   73  A    between atoms: _177  and  _179
REMARK   74  A    between atoms: _179  and  _180
REMARK   75  A    between atoms: _179  and  _182
REMARK   76  A    between atoms: _182  and  _183
REMARK   77  A    between atoms: _183  and  _184
REMARK   78  A    between atoms: _189  and  _191
REMARK   79  A    between atoms: _191  and  _192
REMARK   80  A    between atoms: _194  and  _196
REMARK   81  A    between atoms: _196  and  _197
REMARK   82  A    between atoms: _196  and  _199
REMARK   83  A    between atoms: _199  and  _200
REMARK   84  A    between atoms: _200  and  _201
REMARK   85  A    between atoms: _201  and  _202
REMARK   86  A    between atoms: _202  and  _203
REMARK   87  A    between atoms: _207  and  _209
REMARK   88  A    between atoms: _209  and  _210
REMARK   89  A    between atoms: _209  and  _212
REMARK   90  A    between atoms: _212  and  _213
REMARK   91  A    between atoms: _223  and  _225
REMARK   92  A    between atoms: _225  and  _226
REMARK   93  A    between atoms: _225  and  _228
REMARK   94  A    between atoms: _228  and  _229
REMARK   95  A    between atoms: _232  and  _234
REMARK   96  A    between atoms: _234  and  _235
REMARK   97  A    between atoms: _234  and  _237
REMARK   98  A    between atoms: _237  and  _238
REMARK   99  A    between atoms: _238  and  _239
REMARK  100  A    between atoms: _239  and  _240
REMARK  101  A    between atoms: _240  and  _241
REMARK  102  A    between atoms: _245  and  _247
REMARK  103  A    between atoms: _247  and  _248
REMARK  104  A    between atoms: _247  and  _250
REMARK  105  A    between atoms: _250  and  _251
REMARK  106  A    between atoms: _257  and  _259
REMARK  107  A    between atoms: _259  and  _260
REMARK  108  A    between atoms: _259  and  _262
REMARK  109  A    between atoms: _262  and  _263
REMARK  110  A    between atoms: _269  and  _271
REMARK  111  A    between atoms: _271  and  _272
REMARK  112  A    between atoms: _271  and  _274
REMARK  113  A    between atoms: _274  and  _275
REMARK  114  A    between atoms: _278  and  _280
REMARK  115  A    between atoms: _280  and  _281
REMARK  116  A    between atoms: _280  and  _283
REMARK  117  A    between atoms: _283  and  _284
REMARK  118  A    between atoms: _286  and  _288
REMARK  119  A    between atoms: _288  and  _289
REMARK  120  A    between atoms: _288  and  _291
REMARK  121  A    between atoms: _291  and  _292
REMARK  122  A    between atoms: _302  and  _304
REMARK  123  A    between atoms: _304  and  _305
REMARK  124  A    between atoms: _307  and  _309
REMARK  125  A    between atoms: _309  and  _310
REMARK  126  A    between atoms: _309  and  _312
REMARK  127  A    between atoms: _312  and  _313
REMARK  128  A    between atoms: _316  and  _318
REMARK  129  A    between atoms: _318  and  _319
REMARK  130  A    between atoms: _318  and  _321
REMARK  131  A    between atoms: _321  and  _322
REMARK  132  A    between atoms: _325  and  _327
REMARK  133  A    between atoms: _327  and  _328
REMARK  134  A    between atoms: _330  and  _332
REMARK  135  A    between atoms: _332  and  _333
REMARK  136  A    between atoms: _336  and  _338
REMARK  137  A    between atoms: _338  and  _339
REMARK  138  A    between atoms: _338  and  _341
REMARK  139  A    between atoms: _341  and  _342
REMARK  140  A    between atoms: _347  and  _348
REMARK  141  A    between atoms: _350  and  _352
REMARK  142  A    between atoms: _352  and  _353
REMARK  143  A    between atoms: _352  and  _355
REMARK  144  A    between atoms: _355  and  _356
REMARK  145  A    between atoms: _356  and  _357
REMARK  146  A    between atoms: _360  and  _362
REMARK  147  A    between atoms: _362  and  _363
REMARK  148  A    between atoms: _362  and  _365
REMARK  149  A    between atoms: _365  and  _366
REMARK  150  A    between atoms: _369  and  _371
REMARK  151  A    between atoms: _371  and  _372
REMARK  152  A    between atoms: _375  and  _377
REMARK  153  A    between atoms: _377  and  _378
REMARK  154  A    between atoms: _377  and  _380
REMARK  155  A    between atoms: _380  and  _381
REMARK  156  A    between atoms: _381  and  _382
REMARK  157  A    between atoms: _382  and  _383
REMARK  158  A    between atoms: _393  and  _394
REMARK  159  A    between atoms: _399  and  _401
REMARK  160  A    between atoms: _401  and  _402
REMARK  161  A    between atoms: _401  and  _404
REMARK  162  A    between atoms: _404  and  _405
REMARK  163  A    between atoms: _415  and  _417
REMARK  164  A    between atoms: _417  and  _418
REMARK  165  A    between atoms: _417  and  _420
REMARK  166  A    between atoms: _420  and  _421
REMARK  167  A    between atoms: _426  and  _427
REMARK  168  A    between atoms: _429  and  _431
REMARK  169  A    between atoms: _431  and  _432
REMARK  170  A    between atoms: _431  and  _434
REMARK  171  A    between atoms: _434  and  _435
REMARK  172  A    between atoms: _435  and  _436
REMARK  173  A    between atoms: _436  and  _437
REMARK  174  A    between atoms: _437  and  _438
REMARK  175  A    between atoms: _442  and  _444
REMARK  176  A    between atoms: _444  and  _445
REMARK  177  A    between atoms: _444  and  _447
REMARK  178  A    between atoms: _447  and  _448
REMARK  179  A    between atoms: _451  and  _453
REMARK  180  A    between atoms: _453  and  _454
REMARK  181  A    between atoms: _453  and  _456
REMARK  182  A    between atoms: _459  and  _461
REMARK  183  A    between atoms: _461  and  _462
REMARK  184  A    between atoms: _461  and  _464
REMARK  185  A    between atoms: _464  and  _465
REMARK  186  A    between atoms: _468  and  _470
REMARK  187  A    between atoms: _470  and  _471
REMARK  188  A    between atoms: _470  and  _473
REMARK  189  A    between atoms: _473  and  _474
REMARK  190  A    between atoms: _476  and  _478
REMARK  191  A    between atoms: _478  and  _479
REMARK  192  A    between atoms: _481  and  _483
REMARK  193  A    between atoms: _483  and  _484
REMARK  194  A    between atoms: _483  and  _486
REMARK  195  A    between atoms: _486  and  _487
REMARK  196  A    between atoms: _490  and  _492
REMARK  197  A    between atoms: _492  and  _493
REMARK  198  A    between atoms: _492  and  _495
REMARK  199  A    between atoms: _495  and  _496
REMARK  200  A    between atoms: _499  and  _501
REMARK  201  A    between atoms: _501  and  _502
REMARK  202  A    between atoms: _501  and  _504
REMARK  203  A    between atoms: _504  and  _505
REMARK  204  A    between atoms: _510  and  _512
REMARK  205  A    between atoms: _512  and  _513
REMARK  206  A    between atoms: _512  and  _515
REMARK  207  A    between atoms: _515  and  _516
REMARK  208  A    between atoms: _516  and  _517
REMARK  209  A    between atoms: _517  and  _518
REMARK  210  A    between atoms: _527  and  _529
REMARK  211  A    between atoms: _529  and  _530
REMARK  212  A    between atoms: _529  and  _532
REMARK  213  A    between atoms: _532  and  _533
REMARK  214  A    between atoms: _533  and  _534
REMARK  215  A    between atoms: _534  and  _535
REMARK  216  A    between atoms: _544  and  _546
REMARK  217  A    between atoms: _546  and  _547
REMARK  218  A    between atoms: _546  and  _549
REMARK  219  A    between atoms: _549  and  _550
REMARK  220  A    between atoms: _552  and  _554
REMARK  221  A    between atoms: _554  and  _555
REMARK  222  A    between atoms: _554  and  _557
REMARK  223  A    between atoms: _557  and  _558
REMARK  224  A    between atoms: _560  and  _562
REMARK  225  A    between atoms: _562  and  _563
REMARK  226  A    between atoms: _562  and  _565
REMARK  227  A    between atoms: _565  and  _566
REMARK  228  A    between atoms: _569  and  _571
REMARK  229  A    between atoms: _571  and  _572
REMARK  230  A    between atoms: _571  and  _574
REMARK  231  A    between atoms: _574  and  _575
REMARK  232  A    between atoms: _578  and  _580
REMARK  233  A    between atoms: _580  and  _581
REMARK  234  A    between atoms: _580  and  _583
REMARK  235  A    between atoms: _586  and  _588
REMARK  236  A    between atoms: _588  and  _589
REMARK  237  A    between atoms: _591  and  _593
REMARK  238  A    between atoms: _593  and  _594
REMARK  239  A    between atoms: _597  and  _599
REMARK  240  A    between atoms: _599  and  _600
REMARK  241  A    between atoms: _599  and  _602
REMARK                            x       y       z     vdW  Elec       q    Type
REMARK                         _______ _______ _______ _____ _____    ______ ____
ROOT
ATOM      1  O   HOH     1       8.755   5.626  47.356  0.00  0.00    +0.000 OA
ENDROOT
TORSDOF 0
REMARK  Name = ../refined-set-2016/2fdp/2fdp_pocket.pdb
REMARK  241 active torsions:
REMARK  status: ('A' for Active; 'I' for Inactive)
REMARK    1  A    between atoms: _1  and  _3
REMARK    2  A    between atoms: _3  and  _4
REMARK    3  A    between atoms: _3  and  _6
REMARK    4  A    between atoms: _6  and  _7
REMARK    5  A    between atoms: _7  and  _8
REMARK    6  A    between atoms: _8  and  _9
REMARK    7  A    between atoms: _9  and  _10
REMARK    8  A    between atoms: _14  and  _16
REMARK    9  A    between atoms: _16  and  _17
REMARK   10  A    between atoms: _16  and  _19
REMARK   11  A    between atoms: _19  and  _20
REMARK   12  A    between atoms: _22  and  _24
REMARK   13  A    between atoms: _24  and  _25
REMARK   14  A    between atoms: _27  and  _29
REMARK   15  A    between atoms: _29  and  _30
REMARK   16  A    between atoms: _29  and  _32
REMARK   17  A    between atoms: _32  and  _33
REMARK   18  A    between atoms: _33  and  _34
REMARK   19  A    between atoms: _39  and  _41
REMARK   20  A    between atoms: _41  and  _42
REMARK   21  A    between atoms: _44  and  _46
REMARK   22  A    between atoms: _46  and  _47
REMARK   23  A    between atoms: _46  and  _49
REMARK   24  A    between atoms: _49  and  _50
REMARK   25  A    between atoms: _55  and  _56
REMARK   26  A    between atoms: _58  and  _60
REMARK   27  A    between atoms: _60  and  _61
REMARK   28  A    between atoms: _60  and  _63
REMARK   29  A    between atoms: _63  and  _64
REMARK   30  A    between atoms: _67  and  _69
REMARK   31  A    between atoms: _69  and  _70
REMARK   32  A    between atoms: _69  and  _72
REMARK   33  A    between atoms: _75  and  _77
REMARK   34  A    between atoms: _77  and  _78
REMARK   35  A    between atoms: _77  and  _80
REMARK   36  A    between atoms: _80  and  _81
REMARK   37  A    between atoms: _84  and  _86
REMARK   38  A    between atoms: _86  and  _87
REMARK   39  A    between atoms: _86  and  _89
REMARK   40  A    between atoms: _89  and  _90
REMARK   41  A    between atoms: _93  and  _95
REMARK   42  A    between atoms: _95  and  _96
REMARK   43  A    between atoms: _98  and  _100
REMARK   44  A    between atoms: _100  and  _101
REMARK   45  A    between atoms: _100  and  _103
REMARK   46  A    between atoms: _103  and  _104
REMARK   47  A    between atoms: _106  and  _108
REMARK   48  A    between atoms: _108  and  _109
REMARK   49  A    between atoms: _108  and  _111
REMARK   50  A    between atoms: _111  and  _112
REMARK   51  A    between atoms: _114  and  _116
REMARK   52  A    between atoms: _116  and  _117
REMARK   53  A    between atoms: _116  and  _119
REMARK   54  A    between atoms: _119  and  _120
REMARK   55  A    between atoms: _125  and  _127
REMARK   56  A    between atoms: _127  and  _128
REMARK   57  A    between atoms: _127  and  _130
REMARK   58  A    between atoms: _130  and  _131
REMARK   59  A    between atoms: _136  and  _137
REMARK   60  A    between atoms: _139  and  _141
REMARK   61  A    between atoms: _141  and  _142
REMARK   62  A    between atoms: _141  and  _144
REMARK   63  A    between atoms: _148  and  _149
REMARK   64  A    between atoms: _154  and  _156
REMARK   65  A    between atoms: _156  and  _157
REMARK   66  A    between atoms: _156  and  _159
REMARK   67  A    between atoms: _159  and  _160
REMARK   68  A    between atoms: _165  and  _166
REMARK   69  A    between atoms: _168  and  _170
REMARK   70  A    between atoms: _170  and  _171
REMARK   71  A    between atoms: _170  and  _173
REMARK   72  A    between atoms: _173  and  _174
REMARK   73  A    between atoms: _177  and  _179
REMARK   74  A    between atoms: _179  and  _180
REMARK   75  A    between atoms: _179  and  _182
REMARK   76  A    between atoms: _182  and  _183
REMARK   77  A    between atoms: _183  and  _184
REMARK   78  A    between atoms: _189  and  _191
REMARK   79  A    between atoms: _191  and  _192
REMARK   80  A    between atoms: _194  and  _196
REMARK   81  A    between atoms: _196  and  _197
REMARK   82  A    between atoms: _196  and  _199
REMARK   83  A    between atoms: _199  and  _200
REMARK   84  A    between atoms: _200  and  _201
REMARK   85  A    between atoms: _201  and  _202
REMARK   86  A    between atoms: _202  and  _203
REMARK   87  A    between atoms: _207  and  _209
REMARK   88  A    between atoms: _209  and  _210
REMARK   89  A    between atoms: _209  and  _212
REMARK   90  A    between atoms: _212  and  _213
REMARK   91  A    between atoms: _223  and  _225
REMARK   92  A    between atoms: _225  and  _226
REMARK   93  A    between atoms: _225  and  _228
REMARK   94  A    between atoms: _228  and  _229
REMARK   95  A    between atoms: _232  and  _234
REMARK   96  A    between atoms: _234  and  _235
REMARK   97  A    between atoms: _234  and  _237
REMARK   98  A    between atoms: _237  and  _238
REMARK   99  A    between atoms: _238  and  _239
REMARK  100  A    between atoms: _239  and  _240
REMARK  101  A    between atoms: _240  and  _241
REMARK  102  A    between atoms: _245  and  _247
REMARK  103  A    between atoms: _247  and  _248
REMARK  104  A    between atoms: _247  and  _250
REMARK  105  A    between atoms: _250  and  _251
REMARK  106  A    between atoms: _257  and  _259
REMARK  107  A    between atoms: _259  and  _260
REMARK  108  A    between atoms: _259  and  _262
REMARK  109  A    between atoms: _262  and  _263
REMARK  110  A    between atoms: _269  and  _271
REMARK  111  A    between atoms: _271  and  _272
REMARK  112  A    between atoms: _271  and  _274
REMARK  113  A    between atoms: _274  and  _275
REMARK  114  A    between atoms: _278  and  _280
REMARK  115  A    between atoms: _280  and  _281
REMARK  116  A    between atoms: _280  and  _283
REMARK  117  A    between atoms: _283  and  _284
REMARK  118  A    between atoms: _286  and  _288
REMARK  119  A    between atoms: _288  and  _289
REMARK  120  A    between atoms: _288  and  _291
REMARK  121  A    between atoms: _291  and  _292
REMARK  122  A    between atoms: _302  and  _304
REMARK  123  A    between atoms: _304  and  _305
REMARK  124  A    between atoms: _307  and  _309
REMARK  125  A    between atoms: _309  and  _310
REMARK  126  A    between atoms: _309  and  _312
REMARK  127  A    between atoms: _312  and  _313
REMARK  128  A    between atoms: _316  and  _318
REMARK  129  A    between atoms: _318  and  _319
REMARK  130  A    between atoms: _318  and  _321
REMARK  131  A    between atoms: _321  and  _322
REMARK  132  A    between atoms: _325  and  _327
REMARK  133  A    between atoms: _327  and  _328
REMARK  134  A    between atoms: _330  and  _332
REMARK  135  A    between atoms: _332  and  _333
REMARK  136  A    between atoms: _336  and  _338
REMARK  137  A    between atoms: _338  and  _339
REMARK  138  A    between atoms: _338  and  _341
REMARK  139  A    between atoms: _341  and  _342
REMARK  140  A    between atoms: _347  and  _348
REMARK  141  A    between atoms: _350  and  _352
REMARK  142  A    between atoms: _352  and  _353
REMARK  143  A    between atoms: _352  and  _355
REMARK  144  A    between atoms: _355  and  _356
REMARK  145  A    between atoms: _356  and  _357
REMARK  146  A    between atoms: _360  and  _362
REMARK  147  A    between atoms: _362  and  _363
REMARK  148  A    between atoms: _362  and  _365
REMARK  149  A    between atoms: _365  and  _366
REMARK  150  A    between atoms: _369  and  _371
REMARK  151  A    between atoms: _371  and  _372
REMARK  152  A    between atoms: _375  and  _377
REMARK  153  A    between atoms: _377  and  _378
REMARK  154  A    between atoms: _377  and  _380
REMARK  155  A    between atoms: _380  and  _381
REMARK  156  A    between atoms: _381  and  _382
REMARK  157  A    between atoms: _382  and  _383
REMARK  158  A    between atoms: _393  and  _394
REMARK  159  A    between atoms: _399  and  _401
REMARK  160  A    between atoms: _401  and  _402
REMARK  161  A    between atoms: _401  and  _404
REMARK  162  A    between atoms: _404  and  _405
REMARK  163  A    between atoms: _415  and  _417
REMARK  164  A    between atoms: _417  and  _418
REMARK  165  A    between atoms: _417  and  _420
REMARK  166  A    between atoms: _420  and  _421
REMARK  167  A    between atoms: _426  and  _427
REMARK  168  A    between atoms: _429  and  _431
REMARK  169  A    between atoms: _431  and  _432
REMARK  170  A    between atoms: _431  and  _434
REMARK  171  A    between atoms: _434  and  _435
REMARK  172  A    between atoms: _435  and  _436
REMARK  173  A    between atoms: _436  and  _437
REMARK  174  A    between atoms: _437  and  _438
REMARK  175  A    between atoms: _442  and  _444
REMARK  176  A    between atoms: _444  and  _445
REMARK  177  A    between atoms: _444  and  _447
REMARK  178  A    between atoms: _447  and  _448
REMARK  179  A    between atoms: _451  and  _453
REMARK  180  A    between atoms: _453  and  _454
REMARK  181  A    between atoms: _453  and  _456
REMARK  182  A    between atoms: _459  and  _461
REMARK  183  A    between atoms: _461  and  _462
REMARK  184  A    between atoms: _461  and  _464
REMARK  185  A    between atoms: _464  and  _465
REMARK  186  A    between atoms: _468  and  _470
REMARK  187  A    between atoms: _470  and  _471
REMARK  188  A    between atoms: _470  and  _473
REMARK  189  A    between atoms: _473  and  _474
REMARK  190  A    between atoms: _476  and  _478
REMARK  191  A    between atoms: _478  and  _479
REMARK  192  A    between atoms: _481  and  _483
REMARK  193  A    between atoms: _483  and  _484
REMARK  194  A    between atoms: _483  and  _486
REMARK  195  A    between atoms: _486  and  _487
REMARK  196  A    between atoms: _490  and  _492
REMARK  197  A    between atoms: _492  and  _493
REMARK  198  A    between atoms: _492  and  _495
REMARK  199  A    between atoms: _495  and  _496
REMARK  200  A    between atoms: _499  and  _501
REMARK  201  A    between atoms: _501  and  _502
REMARK  202  A    between atoms: _501  and  _504
REMARK  203  A    between atoms: _504  and  _505
REMARK  204  A    between atoms: _510  and  _512
REMARK  205  A    between atoms: _512  and  _513
REMARK  206  A    between atoms: _512  and  _515
REMARK  207  A    between atoms: _515  and  _516
REMARK  208  A    between atoms: _516  and  _517
REMARK  209  A    between atoms: _517  and  _518
REMARK  210  A    between atoms: _527  and  _529
REMARK  211  A    between atoms: _529  and  _530
REMARK  212  A    between atoms: _529  and  _532
REMARK  213  A    between atoms: _532  and  _533
REMARK  214  A    between atoms: _533  and  _534
REMARK  215  A    between atoms: _534  and  _535
REMARK  216  A    between atoms: _544  and  _546
REMARK  217  A    between atoms: _546  and  _547
REMARK  218  A    between atoms: _546  and  _549
REMARK  219  A    between atoms: _549  and  _550
REMARK  220  A    between atoms: _552  and  _554
REMARK  221  A    between atoms: _554  and  _555
REMARK  222  A    between atoms: _554  and  _557
REMARK  223  A    between atoms: _557  and  _558
REMARK  224  A    between atoms: _560  and  _562
REMARK  225  A    between atoms: _562  and  _563
REMARK  226  A    between atoms: _562  and  _565
REMARK  227  A    between atoms: _565  and  _566
REMARK  228  A    between atoms: _569  and  _571
REMARK  229  A    between atoms: _571  and  _572
REMARK  230  A    between atoms: _571  and  _574
REMARK  231  A    between atoms: _574  and  _575
REMARK  232  A    between atoms: _578  and  _580
REMARK  233  A    between atoms: _580  and  _581
REMARK  234  A    between atoms: _580  and  _583
REMARK  235  A    between atoms: _586  and  _588
REMARK  236  A    between atoms: _588  and  _589
REMARK  237  A    between atoms: _591  and  _593
REMARK  238  A    between atoms: _593  and  _594
REMARK  239  A    between atoms: _597  and  _599
REMARK  240  A    between atoms: _599  and  _600
REMARK  241  A    between atoms: _599  and  _602
REMARK                            x       y       z     vdW  Elec       q    Type
REMARK                         _______ _______ _______ _____ _____    ______ ____
ROOT
ATOM      1  O   HOH     1      19.678   0.827  46.165  0.00  0.00    +0.000 OA
ENDROOT
TORSDOF 0
REMARK  Name = ../refined-set-2016/2fdp/2fdp_pocket.pdb
REMARK  241 active torsions:
REMARK  status: ('A' for Active; 'I' for Inactive)
REMARK    1  A    between atoms: _1  and  _3
REMARK    2  A    between atoms: _3  and  _4
REMARK    3  A    between atoms: _3  and  _6
REMARK    4  A    between atoms: _6  and  _7
REMARK    5  A    between atoms: _7  and  _8
REMARK    6  A    between atoms: _8  and  _9
REMARK    7  A    between atoms: _9  and  _10
REMARK    8  A    between atoms: _14  and  _16
REMARK    9  A    between atoms: _16  and  _17
REMARK   10  A    between atoms: _16  and  _19
REMARK   11  A    between atoms: _19  and  _20
REMARK   12  A    between atoms: _22  and  _24
REMARK   13  A    between atoms: _24  and  _25
REMARK   14  A    between atoms: _27  and  _29
REMARK   15  A    between atoms: _29  and  _30
REMARK   16  A    between atoms: _29  and  _32
REMARK   17  A    between atoms: _32  and  _33
REMARK   18  A    between atoms: _33  and  _34
REMARK   19  A    between atoms: _39  and  _41
REMARK   20  A    between atoms: _41  and  _42
REMARK   21  A    between atoms: _44  and  _46
REMARK   22  A    between atoms: _46  and  _47
REMARK   23  A    between atoms: _46  and  _49
REMARK   24  A    between atoms: _49  and  _50
REMARK   25  A    between atoms: _55  and  _56
REMARK   26  A    between atoms: _58  and  _60
REMARK   27  A    between atoms: _60  and  _61
REMARK   28  A    between atoms: _60  and  _63
REMARK   29  A    between atoms: _63  and  _64
REMARK   30  A    between atoms: _67  and  _69
REMARK   31  A    between atoms: _69  and  _70
REMARK   32  A    between atoms: _69  and  _72
REMARK   33  A    between atoms: _75  and  _77
REMARK   34  A    between atoms: _77  and  _78
REMARK   35  A    between atoms: _77  and  _80
REMARK   36  A    between atoms: _80  and  _81
REMARK   37  A    between atoms: _84  and  _86
REMARK   38  A    between atoms: _86  and  _87
REMARK   39  A    between atoms: _86  and  _89
REMARK   40  A    between atoms: _89  and  _90
REMARK   41  A    between atoms: _93  and  _95
REMARK   42  A    between atoms: _95  and  _96
REMARK   43  A    between atoms: _98  and  _100
REMARK   44  A    between atoms: _100  and  _101
REMARK   45  A    between atoms: _100  and  _103
REMARK   46  A    between atoms: _103  and  _104
REMARK   47  A    between atoms: _106  and  _108
REMARK   48  A    between atoms: _108  and  _109
REMARK   49  A    between atoms: _108  and  _111
REMARK   50  A    between atoms: _111  and  _112
REMARK   51  A    between atoms: _114  and  _116
REMARK   52  A    between atoms: _116  and  _117
REMARK   53  A    between atoms: _116  and  _119
REMARK   54  A    between atoms: _119  and  _120
REMARK   55  A    between atoms: _125  and  _127
REMARK   56  A    between atoms: _127  and  _128
REMARK   57  A    between atoms: _127  and  _130
REMARK   58  A    between atoms: _130  and  _131
REMARK   59  A    between atoms: _136  and  _137
REMARK   60  A    between atoms: _139  and  _141
REMARK   61  A    between atoms: _141  and  _142
REMARK   62  A    between atoms: _141  and  _144
REMARK   63  A    between atoms: _148  and  _149
REMARK   64  A    between atoms: _154  and  _156
REMARK   65  A    between atoms: _156  and  _157
REMARK   66  A    between atoms: _156  and  _159
REMARK   67  A    between atoms: _159  and  _160
REMARK   68  A    between atoms: _165  and  _166
REMARK   69  A    between atoms: _168  and  _170
REMARK   70  A    between atoms: _170  and  _171
REMARK   71  A    between atoms: _170  and  _173
REMARK   72  A    between atoms: _173  and  _174
REMARK   73  A    between atoms: _177  and  _179
REMARK   74  A    between atoms: _179  and  _180
REMARK   75  A    between atoms: _179  and  _182
REMARK   76  A    between atoms: _182  and  _183
REMARK   77  A    between atoms: _183  and  _184
REMARK   78  A    between atoms: _189  and  _191
REMARK   79  A    between atoms: _191  and  _192
REMARK   80  A    between atoms: _194  and  _196
REMARK   81  A    between atoms: _196  and  _197
REMARK   82  A    between atoms: _196  and  _199
REMARK   83  A    between atoms: _199  and  _200
REMARK   84  A    between atoms: _200  and  _201
REMARK   85  A    between atoms: _201  and  _202
REMARK   86  A    between atoms: _202  and  _203
REMARK   87  A    between atoms: _207  and  _209
REMARK   88  A    between atoms: _209  and  _210
REMARK   89  A    between atoms: _209  and  _212
REMARK   90  A    between atoms: _212  and  _213
REMARK   91  A    between atoms: _223  and  _225
REMARK   92  A    between atoms: _225  and  _226
REMARK   93  A    between atoms: _225  and  _228
REMARK   94  A    between atoms: _228  and  _229
REMARK   95  A    between atoms: _232  and  _234
REMARK   96  A    between atoms: _234  and  _235
REMARK   97  A    between atoms: _234  and  _237
REMARK   98  A    between atoms: _237  and  _238
REMARK   99  A    between atoms: _238  and  _239
REMARK  100  A    between atoms: _239  and  _240
REMARK  101  A    between atoms: _240  and  _241
REMARK  102  A    between atoms: _245  and  _247
REMARK  103  A    between atoms: _247  and  _248
REMARK  104  A    between atoms: _247  and  _250
REMARK  105  A    between atoms: _250  and  _251
REMARK  106  A    between atoms: _257  and  _259
REMARK  107  A    between atoms: _259  and  _260
REMARK  108  A    between atoms: _259  and  _262
REMARK  109  A    between atoms: _262  and  _263
REMARK  110  A    between atoms: _269  and  _271
REMARK  111  A    between atoms: _271  and  _272
REMARK  112  A    between atoms: _271  and  _274
REMARK  113  A    between atoms: _274  and  _275
REMARK  114  A    between atoms: _278  and  _280
REMARK  115  A    between atoms: _280  and  _281
REMARK  116  A    between atoms: _280  and  _283
REMARK  117  A    between atoms: _283  and  _284
REMARK  118  A    between atoms: _286  and  _288
REMARK  119  A    between atoms: _288  and  _289
REMARK  120  A    between atoms: _288  and  _291
REMARK  121  A    between atoms: _291  and  _292
REMARK  122  A    between atoms: _302  and  _304
REMARK  123  A    between atoms: _304  and  _305
REMARK  124  A    between atoms: _307  and  _309
REMARK  125  A    between atoms: _309  and  _310
REMARK  126  A    between atoms: _309  and  _312
REMARK  127  A    between atoms: _312  and  _313
REMARK  128  A    between atoms: _316  and  _318
REMARK  129  A    between atoms: _318  and  _319
REMARK  130  A    between atoms: _318  and  _321
REMARK  131  A    between atoms: _321  and  _322
REMARK  132  A    between atoms: _325  and  _327
REMARK  133  A    between atoms: _327  and  _328
REMARK  134  A    between atoms: _330  and  _332
REMARK  135  A    between atoms: _332  and  _333
REMARK  136  A    between atoms: _336  and  _338
REMARK  137  A    between atoms: _338  and  _339
REMARK  138  A    between atoms: _338  and  _341
REMARK  139  A    between atoms: _341  and  _342
REMARK  140  A    between atoms: _347  and  _348
REMARK  141  A    between atoms: _350  and  _352
REMARK  142  A    between atoms: _352  and  _353
REMARK  143  A    between atoms: _352  and  _355
REMARK  144  A    between atoms: _355  and  _356
REMARK  145  A    between atoms: _356  and  _357
REMARK  146  A    between atoms: _360  and  _362
REMARK  147  A    between atoms: _362  and  _363
REMARK  148  A    between atoms: _362  and  _365
REMARK  149  A    between atoms: _365  and  _366
REMARK  150  A    between atoms: _369  and  _371
REMARK  151  A    between atoms: _371  and  _372
REMARK  152  A    between atoms: _375  and  _377
REMARK  153  A    between atoms: _377  and  _378
REMARK  154  A    between atoms: _377  and  _380
REMARK  155  A    between atoms: _380  and  _381
REMARK  156  A    between atoms: _381  and  _382
REMARK  157  A    between atoms: _382  and  _383
REMARK  158  A    between atoms: _393  and  _394
REMARK  159  A    between atoms: _399  and  _401
REMARK  160  A    between atoms: _401  and  _402
REMARK  161  A    between atoms: _401  and  _404
REMARK  162  A    between atoms: _404  and  _405
REMARK  163  A    between atoms: _415  and  _417
REMARK  164  A    between atoms: _417  and  _418
REMARK  165  A    between atoms: _417  and  _420
REMARK  166  A    between atoms: _420  and  _421
REMARK  167  A    between atoms: _426  and  _427
REMARK  168  A    between atoms: _429  and  _431
REMARK  169  A    between atoms: _431  and  _432
REMARK  170  A    between atoms: _431  and  _434
REMARK  171  A    between atoms: _434  and  _435
REMARK  172  A    between atoms: _435  and  _436
REMARK  173  A    between atoms: _436  and  _437
REMARK  174  A    between atoms: _437  and  _438
REMARK  175  A    between atoms: _442  and  _444
REMARK  176  A    between atoms: _444  and  _445
REMARK  177  A    between atoms: _444  and  _447
REMARK  178  A    between atoms: _447  and  _448
REMARK  179  A    between atoms: _451  and  _453
REMARK  180  A    between atoms: _453  and  _454
REMARK  181  A    between atoms: _453  and  _456
REMARK  182  A    between atoms: _459  and  _461
REMARK  183  A    between atoms: _461  and  _462
REMARK  184  A    between atoms: _461  and  _464
REMARK  185  A    between atoms: _464  and  _465
REMARK  186  A    between atoms: _468  and  _470
REMARK  187  A    between atoms: _470  and  _471
REMARK  188  A    between atoms: _470  and  _473
REMARK  189  A    between atoms: _473  and  _474
REMARK  190  A    between atoms: _476  and  _478
REMARK  191  A    between atoms: _478  and  _479
REMARK  192  A    between atoms: _481  and  _483
REMARK  193  A    between atoms: _483  and  _484
REMARK  194  A    between atoms: _483  and  _486
REMARK  195  A    between atoms: _486  and  _487
REMARK  196  A    between atoms: _490  and  _492
REMARK  197  A    between atoms: _492  and  _493
REMARK  198  A    between atoms: _492  and  _495
REMARK  199  A    between atoms: _495  and  _496
REMARK  200  A    between atoms: _499  and  _501
REMARK  201  A    between atoms: _501  and  _502
REMARK  202  A    between atoms: _501  and  _504
REMARK  203  A    between atoms: _504  and  _505
REMARK  204  A    between atoms: _510  and  _512
REMARK  205  A    between atoms: _512  and  _513
REMARK  206  A    between atoms: _512  and  _515
REMARK  207  A    between atoms: _515  and  _516
REMARK  208  A    between atoms: _516  and  _517
REMARK  209  A    between atoms: _517  and  _518
REMARK  210  A    between atoms: _527  and  _529
REMARK  211  A    between atoms: _529  and  _530
REMARK  212  A    between atoms: _529  and  _532
REMARK  213  A    between atoms: _532  and  _533
REMARK  214  A    between atoms: _533  and  _534
REMARK  215  A    between atoms: _534  and  _535
REMARK  216  A    between atoms: _544  and  _546
REMARK  217  A    between atoms: _546  and  _547
REMARK  218  A    between atoms: _546  and  _549
REMARK  219  A    between atoms: _549  and  _550
REMARK  220  A    between atoms: _552  and  _554
REMARK  221  A    between atoms: _554  and  _555
REMARK  222  A    between atoms: _554  and  _557
REMARK  223  A    between atoms: _557  and  _558
REMARK  224  A    between atoms: _560  and  _562
REMARK  225  A    between atoms: _562  and  _563
REMARK  226  A    between atoms: _562  and  _565
REMARK  227  A    between atoms: _565  and  _566
REMARK  228  A    between atoms: _569  and  _571
REMARK  229  A    between atoms: _571  and  _572
REMARK  230  A    between atoms: _571  and  _574
REMARK  231  A    between atoms: _574  and  _575
REMARK  232  A    between atoms: _578  and  _580
REMARK  233  A    between atoms: _580  and  _581
REMARK  234  A    between atoms: _580  and  _583
REMARK  235  A    between atoms: _586  and  _588
REMARK  236  A    between atoms: _588  and  _589
REMARK  237  A    between atoms: _591  and  _593
REMARK  238  A    between atoms: _593  and  _594
REMARK  239  A    between atoms: _597  and  _599
REMARK  240  A    between atoms: _599  and  _600
REMARK  241  A    between atoms: _599  and  _602
REMARK                            x       y       z     vdW  Elec       q    Type
REMARK                         _______ _______ _______ _____ _____    ______ ____
ROOT
ATOM      1  O   HOH     1      16.663  -4.266  41.308  0.00  0.00    +0.000 OA
ENDROOT
TORSDOF 0
REMARK  Name = ../refined-set-2016/2fdp/2fdp_pocket.pdb
REMARK  241 active torsions:
REMARK  status: ('A' for Active; 'I' for Inactive)
REMARK    1  A    between atoms: _1  and  _3
REMARK    2  A    between atoms: _3  and  _4
REMARK    3  A    between atoms: _3  and  _6
REMARK    4  A    between atoms: _6  and  _7
REMARK    5  A    between atoms: _7  and  _8
REMARK    6  A    between atoms: _8  and  _9
REMARK    7  A    between atoms: _9  and  _10
REMARK    8  A    between atoms: _14  and  _16
REMARK    9  A    between atoms: _16  and  _17
REMARK   10  A    between atoms: _16  and  _19
REMARK   11  A    between atoms: _19  and  _20
REMARK   12  A    between atoms: _22  and  _24
REMARK   13  A    between atoms: _24  and  _25
REMARK   14  A    between atoms: _27  and  _29
REMARK   15  A    between atoms: _29  and  _30
REMARK   16  A    between atoms: _29  and  _32
REMARK   17  A    between atoms: _32  and  _33
REMARK   18  A    between atoms: _33  and  _34
REMARK   19  A    between atoms: _39  and  _41
REMARK   20  A    between atoms: _41  and  _42
REMARK   21  A    between atoms: _44  and  _46
REMARK   22  A    between atoms: _46  and  _47
REMARK   23  A    between atoms: _46  and  _49
REMARK   24  A    between atoms: _49  and  _50
REMARK   25  A    between atoms: _55  and  _56
REMARK   26  A    between atoms: _58  and  _60
REMARK   27  A    between atoms: _60  and  _61
REMARK   28  A    between atoms: _60  and  _63
REMARK   29  A    between atoms: _63  and  _64
REMARK   30  A    between atoms: _67  and  _69
REMARK   31  A    between atoms: _69  and  _70
REMARK   32  A    between atoms: _69  and  _72
REMARK   33  A    between atoms: _75  and  _77
REMARK   34  A    between atoms: _77  and  _78
REMARK   35  A    between atoms: _77  and  _80
REMARK   36  A    between atoms: _80  and  _81
REMARK   37  A    between atoms: _84  and  _86
REMARK   38  A    between atoms: _86  and  _87
REMARK   39  A    between atoms: _86  and  _89
REMARK   40  A    between atoms: _89  and  _90
REMARK   41  A    between atoms: _93  and  _95
REMARK   42  A    between atoms: _95  and  _96
REMARK   43  A    between atoms: _98  and  _100
REMARK   44  A    between atoms: _100  and  _101
REMARK   45  A    between atoms: _100  and  _103
REMARK   46  A    between atoms: _103  and  _104
REMARK   47  A    between atoms: _106  and  _108
REMARK   48  A    between atoms: _108  and  _109
REMARK   49  A    between atoms: _108  and  _111
REMARK   50  A    between atoms: _111  and  _112
REMARK   51  A    between atoms: _114  and  _116
REMARK   52  A    between atoms: _116  and  _117
REMARK   53  A    between atoms: _116  and  _119
REMARK   54  A    between atoms: _119  and  _120
REMARK   55  A    between atoms: _125  and  _127
REMARK   56  A    between atoms: _127  and  _128
REMARK   57  A    between atoms: _127  and  _130
REMARK   58  A    between atoms: _130  and  _131
REMARK   59  A    between atoms: _136  and  _137
REMARK   60  A    between atoms: _139  and  _141
REMARK   61  A    between atoms: _141  and  _142
REMARK   62  A    between atoms: _141  and  _144
REMARK   63  A    between atoms: _148  and  _149
REMARK   64  A    between atoms: _154  and  _156
REMARK   65  A    between atoms: _156  and  _157
REMARK   66  A    between atoms: _156  and  _159
REMARK   67  A    between atoms: _159  and  _160
REMARK   68  A    between atoms: _165  and  _166
REMARK   69  A    between atoms: _168  and  _170
REMARK   70  A    between atoms: _170  and  _171
REMARK   71  A    between atoms: _170  and  _173
REMARK   72  A    between atoms: _173  and  _174
REMARK   73  A    between atoms: _177  and  _179
REMARK   74  A    between atoms: _179  and  _180
REMARK   75  A    between atoms: _179  and  _182
REMARK   76  A    between atoms: _182  and  _183
REMARK   77  A    between atoms: _183  and  _184
REMARK   78  A    between atoms: _189  and  _191
REMARK   79  A    between atoms: _191  and  _192
REMARK   80  A    between atoms: _194  and  _196
REMARK   81  A    between atoms: _196  and  _197
REMARK   82  A    between atoms: _196  and  _199
REMARK   83  A    between atoms: _199  and  _200
REMARK   84  A    between atoms: _200  and  _201
REMARK   85  A    between atoms: _201  and  _202
REMARK   86  A    between atoms: _202  and  _203
REMARK   87  A    between atoms: _207  and  _209
REMARK   88  A    between atoms: _209  and  _210
REMARK   89  A    between atoms: _209  and  _212
REMARK   90  A    between atoms: _212  and  _213
REMARK   91  A    between atoms: _223  and  _225
REMARK   92  A    between atoms: _225  and  _226
REMARK   93  A    between atoms: _225  and  _228
REMARK   94  A    between atoms: _228  and  _229
REMARK   95  A    between atoms: _232  and  _234
REMARK   96  A    between atoms: _234  and  _235
REMARK   97  A    between atoms: _234  and  _237
REMARK   98  A    between atoms: _237  and  _238
REMARK   99  A    between atoms: _238  and  _239
REMARK  100  A    between atoms: _239  and  _240
REMARK  101  A    between atoms: _240  and  _241
REMARK  102  A    between atoms: _245  and  _247
REMARK  103  A    between atoms: _247  and  _248
REMARK  104  A    between atoms: _247  and  _250
REMARK  105  A    between atoms: _250  and  _251
REMARK  106  A    between atoms: _257  and  _259
REMARK  107  A    between atoms: _259  and  _260
REMARK  108  A    between atoms: _259  and  _262
REMARK  109  A    between atoms: _262  and  _263
REMARK  110  A    between atoms: _269  and  _271
REMARK  111  A    between atoms: _271  and  _272
REMARK  112  A    between atoms: _271  and  _274
REMARK  113  A    between atoms: _274  and  _275
REMARK  114  A    between atoms: _278  and  _280
REMARK  115  A    between atoms: _280  and  _281
REMARK  116  A    between atoms: _280  and  _283
REMARK  117  A    between atoms: _283  and  _284
REMARK  118  A    between atoms: _286  and  _288
REMARK  119  A    between atoms: _288  and  _289
REMARK  120  A    between atoms: _288  and  _291
REMARK  121  A    between atoms: _291  and  _292
REMARK  122  A    between atoms: _302  and  _304
REMARK  123  A    between atoms: _304  and  _305
REMARK  124  A    between atoms: _307  and  _309
REMARK  125  A    between atoms: _309  and  _310
REMARK  126  A    between atoms: _309  and  _312
REMARK  127  A    between atoms: _312  and  _313
REMARK  128  A    between atoms: _316  and  _318
REMARK  129  A    between atoms: _318  and  _319
REMARK  130  A    between atoms: _318  and  _321
REMARK  131  A    between atoms: _321  and  _322
REMARK  132  A    between atoms: _325  and  _327
REMARK  133  A    between atoms: _327  and  _328
REMARK  134  A    between atoms: _330  and  _332
REMARK  135  A    between atoms: _332  and  _333
REMARK  136  A    between atoms: _336  and  _338
REMARK  137  A    between atoms: _338  and  _339
REMARK  138  A    between atoms: _338  and  _341
REMARK  139  A    between atoms: _341  and  _342
REMARK  140  A    between atoms: _347  and  _348
REMARK  141  A    between atoms: _350  and  _352
REMARK  142  A    between atoms: _352  and  _353
REMARK  143  A    between atoms: _352  and  _355
REMARK  144  A    between atoms: _355  and  _356
REMARK  145  A    between atoms: _356  and  _357
REMARK  146  A    between atoms: _360  and  _362
REMARK  147  A    between atoms: _362  and  _363
REMARK  148  A    between atoms: _362  and  _365
REMARK  149  A    between atoms: _365  and  _366
REMARK  150  A    between atoms: _369  and  _371
REMARK  151  A    between atoms: _371  and  _372
REMARK  152  A    between atoms: _375  and  _377
REMARK  153  A    between atoms: _377  and  _378
REMARK  154  A    between atoms: _377  and  _380
REMARK  155  A    between atoms: _380  and  _381
REMARK  156  A    between atoms: _381  and  _382
REMARK  157  A    between atoms: _382  and  _383
REMARK  158  A    between atoms: _393  and  _394
REMARK  159  A    between atoms: _399  and  _401
REMARK  160  A    between atoms: _401  and  _402
REMARK  161  A    between atoms: _401  and  _404
REMARK  162  A    between atoms: _404  and  _405
REMARK  163  A    between atoms: _415  and  _417
REMARK  164  A    between atoms: _417  and  _418
REMARK  165  A    between atoms: _417  and  _420
REMARK  166  A    between atoms: _420  and  _421
REMARK  167  A    between atoms: _426  and  _427
REMARK  168  A    between atoms: _429  and  _431
REMARK  169  A    between atoms: _431  and  _432
REMARK  170  A    between atoms: _431  and  _434
REMARK  171  A    between atoms: _434  and  _435
REMARK  172  A    between atoms: _435  and  _436
REMARK  173  A    between atoms: _436  and  _437
REMARK  174  A    between atoms: _437  and  _438
REMARK  175  A    between atoms: _442  and  _444
REMARK  176  A    between atoms: _444  and  _445
REMARK  177  A    between atoms: _444  and  _447
REMARK  178  A    between atoms: _447  and  _448
REMARK  179  A    between atoms: _451  and  _453
REMARK  180  A    between atoms: _453  and  _454
REMARK  181  A    between atoms: _453  and  _456
REMARK  182  A    between atoms: _459  and  _461
REMARK  183  A    between atoms: _461  and  _462
REMARK  184  A    between atoms: _461  and  _464
REMARK  185  A    between atoms: _464  and  _465
REMARK  186  A    between atoms: _468  and  _470
REMARK  187  A    between atoms: _470  and  _471
REMARK  188  A    between atoms: _470  and  _473
REMARK  189  A    between atoms: _473  and  _474
REMARK  190  A    between atoms: _476  and  _478
REMARK  191  A    between atoms: _478  and  _479
REMARK  192  A    between atoms: _481  and  _483
REMARK  193  A    between atoms: _483  and  _484
REMARK  194  A    between atoms: _483  and  _486
REMARK  195  A    between atoms: _486  and  _487
REMARK  196  A    between atoms: _490  and  _492
REMARK  197  A    between atoms: _492  and  _493
REMARK  198  A    between atoms: _492  and  _495
REMARK  199  A    between atoms: _495  and  _496
REMARK  200  A    between atoms: _499  and  _501
REMARK  201  A    between atoms: _501  and  _502
REMARK  202  A    between atoms: _501  and  _504
REMARK  203  A    between atoms: _504  and  _505
REMARK  204  A    between atoms: _510  and  _512
REMARK  205  A    between atoms: _512  and  _513
REMARK  206  A    between atoms: _512  and  _515
REMARK  207  A    between atoms: _515  and  _516
REMARK  208  A    between atoms: _516  and  _517
REMARK  209  A    between atoms: _517  and  _518
REMARK  210  A    between atoms: _527  and  _529
REMARK  211  A    between atoms: _529  and  _530
REMARK  212  A    between atoms: _529  and  _532
REMARK  213  A    between atoms: _532  and  _533
REMARK  214  A    between atoms: _533  and  _534
REMARK  215  A    between atoms: _534  and  _535
REMARK  216  A    between atoms: _544  and  _546
REMARK  217  A    between atoms: _546  and  _547
REMARK  218  A    between atoms: _546  and  _549
REMARK  219  A    between atoms: _549  and  _550
REMARK  220  A    between atoms: _552  and  _554
REMARK  221  A    between atoms: _554  and  _555
REMARK  222  A    between atoms: _554  and  _557
REMARK  223  A    between atoms: _557  and  _558
REMARK  224  A    between atoms: _560  and  _562
REMARK  225  A    between atoms: _562  and  _563
REMARK  226  A    between atoms: _562  and  _565
REMARK  227  A    between atoms: _565  and  _566
REMARK  228  A    between atoms: _569  and  _571
REMARK  229  A    between atoms: _571  and  _572
REMARK  230  A    between atoms: _571  and  _574
REMARK  231  A    between atoms: _574  and  _575
REMARK  232  A    between atoms: _578  and  _580
REMARK  233  A    between atoms: _580  and  _581
REMARK  234  A    between atoms: _580  and  _583
REMARK  235  A    between atoms: _586  and  _588
REMARK  236  A    between atoms: _588  and  _589
REMARK  237  A    between atoms: _591  and  _593
REMARK  238  A    between atoms: _593  and  _594
REMARK  239  A    between atoms: _597  and  _599
REMARK  240  A    between atoms: _599  and  _600
REMARK  241  A    between atoms: _599  and  _602
REMARK                            x       y       z     vdW  Elec       q    Type
REMARK                         _______ _______ _______ _____ _____    ______ ____
ROOT
ATOM      1  O   HOH     1      15.247   1.219  49.135  0.00  0.00    +0.000 OA
ENDROOT
TORSDOF 0
REMARK  Name = ../refined-set-2016/2fdp/2fdp_pocket.pdb
REMARK  241 active torsions:
REMARK  status: ('A' for Active; 'I' for Inactive)
REMARK    1  A    between atoms: _1  and  _3
REMARK    2  A    between atoms: _3  and  _4
REMARK    3  A    between atoms: _3  and  _6
REMARK    4  A    between atoms: _6  and  _7
REMARK    5  A    between atoms: _7  and  _8
REMARK    6  A    between atoms: _8  and  _9
REMARK    7  A    between atoms: _9  and  _10
REMARK    8  A    between atoms: _14  and  _16
REMARK    9  A    between atoms: _16  and  _17
REMARK   10  A    between atoms: _16  and  _19
REMARK   11  A    between atoms: _19  and  _20
REMARK   12  A    between atoms: _22  and  _24
REMARK   13  A    between atoms: _24  and  _25
REMARK   14  A    between atoms: _27  and  _29
REMARK   15  A    between atoms: _29  and  _30
REMARK   16  A    between atoms: _29  and  _32
REMARK   17  A    between atoms: _32  and  _33
REMARK   18  A    between atoms: _33  and  _34
REMARK   19  A    between atoms: _39  and  _41
REMARK   20  A    between atoms: _41  and  _42
REMARK   21  A    between atoms: _44  and  _46
REMARK   22  A    between atoms: _46  and  _47
REMARK   23  A    between atoms: _46  and  _49
REMARK   24  A    between atoms: _49  and  _50
REMARK   25  A    between atoms: _55  and  _56
REMARK   26  A    between atoms: _58  and  _60
REMARK   27  A    between atoms: _60  and  _61
REMARK   28  A    between atoms: _60  and  _63
REMARK   29  A    between atoms: _63  and  _64
REMARK   30  A    between atoms: _67  and  _69
REMARK   31  A    between atoms: _69  and  _70
REMARK   32  A    between atoms: _69  and  _72
REMARK   33  A    between atoms: _75  and  _77
REMARK   34  A    between atoms: _77  and  _78
REMARK   35  A    between atoms: _77  and  _80
REMARK   36  A    between atoms: _80  and  _81
REMARK   37  A    between atoms: _84  and  _86
REMARK   38  A    between atoms: _86  and  _87
REMARK   39  A    between atoms: _86  and  _89
REMARK   40  A    between atoms: _89  and  _90
REMARK   41  A    between atoms: _93  and  _95
REMARK   42  A    between atoms: _95  and  _96
REMARK   43  A    between atoms: _98  and  _100
REMARK   44  A    between atoms: _100  and  _101
REMARK   45  A    between atoms: _100  and  _103
REMARK   46  A    between atoms: _103  and  _104
REMARK   47  A    between atoms: _106  and  _108
REMARK   48  A    between atoms: _108  and  _109
REMARK   49  A    between atoms: _108  and  _111
REMARK   50  A    between atoms: _111  and  _112
REMARK   51  A    between atoms: _114  and  _116
REMARK   52  A    between atoms: _116  and  _117
REMARK   53  A    between atoms: _116  and  _119
REMARK   54  A    between atoms: _119  and  _120
REMARK   55  A    between atoms: _125  and  _127
REMARK   56  A    between atoms: _127  and  _128
REMARK   57  A    between atoms: _127  and  _130
REMARK   58  A    between atoms: _130  and  _131
REMARK   59  A    between atoms: _136  and  _137
REMARK   60  A    between atoms: _139  and  _141
REMARK   61  A    between atoms: _141  and  _142
REMARK   62  A    between atoms: _141  and  _144
REMARK   63  A    between atoms: _148  and  _149
REMARK   64  A    between atoms: _154  and  _156
REMARK   65  A    between atoms: _156  and  _157
REMARK   66  A    between atoms: _156  and  _159
REMARK   67  A    between atoms: _159  and  _160
REMARK   68  A    between atoms: _165  and  _166
REMARK   69  A    between atoms: _168  and  _170
REMARK   70  A    between atoms: _170  and  _171
REMARK   71  A    between atoms: _170  and  _173
REMARK   72  A    between atoms: _173  and  _174
REMARK   73  A    between atoms: _177  and  _179
REMARK   74  A    between atoms: _179  and  _180
REMARK   75  A    between atoms: _179  and  _182
REMARK   76  A    between atoms: _182  and  _183
REMARK   77  A    between atoms: _183  and  _184
REMARK   78  A    between atoms: _189  and  _191
REMARK   79  A    between atoms: _191  and  _192
REMARK   80  A    between atoms: _194  and  _196
REMARK   81  A    between atoms: _196  and  _197
REMARK   82  A    between atoms: _196  and  _199
REMARK   83  A    between atoms: _199  and  _200
REMARK   84  A    between atoms: _200  and  _201
REMARK   85  A    between atoms: _201  and  _202
REMARK   86  A    between atoms: _202  and  _203
REMARK   87  A    between atoms: _207  and  _209
REMARK   88  A    between atoms: _209  and  _210
REMARK   89  A    between atoms: _209  and  _212
REMARK   90  A    between atoms: _212  and  _213
REMARK   91  A    between atoms: _223  and  _225
REMARK   92  A    between atoms: _225  and  _226
REMARK   93  A    between atoms: _225  and  _228
REMARK   94  A    between atoms: _228  and  _229
REMARK   95  A    between atoms: _232  and  _234
REMARK   96  A    between atoms: _234  and  _235
REMARK   97  A    between atoms: _234  and  _237
REMARK   98  A    between atoms: _237  and  _238
REMARK   99  A    between atoms: _238  and  _239
REMARK  100  A    between atoms: _239  and  _240
REMARK  101  A    between atoms: _240  and  _241
REMARK  102  A    between atoms: _245  and  _247
REMARK  103  A    between atoms: _247  and  _248
REMARK  104  A    between atoms: _247  and  _250
REMARK  105  A    between atoms: _250  and  _251
REMARK  106  A    between atoms: _257  and  _259
REMARK  107  A    between atoms: _259  and  _260
REMARK  108  A    between atoms: _259  and  _262
REMARK  109  A    between atoms: _262  and  _263
REMARK  110  A    between atoms: _269  and  _271
REMARK  111  A    between atoms: _271  and  _272
REMARK  112  A    between atoms: _271  and  _274
REMARK  113  A    between atoms: _274  and  _275
REMARK  114  A    between atoms: _278  and  _280
REMARK  115  A    between atoms: _280  and  _281
REMARK  116  A    between atoms: _280  and  _283
REMARK  117  A    between atoms: _283  and  _284
REMARK  118  A    between atoms: _286  and  _288
REMARK  119  A    between atoms: _288  and  _289
REMARK  120  A    between atoms: _288  and  _291
REMARK  121  A    between atoms: _291  and  _292
REMARK  122  A    between atoms: _302  and  _304
REMARK  123  A    between atoms: _304  and  _305
REMARK  124  A    between atoms: _307  and  _309
REMARK  125  A    between atoms: _309  and  _310
REMARK  126  A    between atoms: _309  and  _312
REMARK  127  A    between atoms: _312  and  _313
REMARK  128  A    between atoms: _316  and  _318
REMARK  129  A    between atoms: _318  and  _319
REMARK  130  A    between atoms: _318  and  _321
REMARK  131  A    between atoms: _321  and  _322
REMARK  132  A    between atoms: _325  and  _327
REMARK  133  A    between atoms: _327  and  _328
REMARK  134  A    between atoms: _330  and  _332
REMARK  135  A    between atoms: _332  and  _333
REMARK  136  A    between atoms: _336  and  _338
REMARK  137  A    between atoms: _338  and  _339
REMARK  138  A    between atoms: _338  and  _341
REMARK  139  A    between atoms: _341  and  _342
REMARK  140  A    between atoms: _347  and  _348
REMARK  141  A    between atoms: _350  and  _352
REMARK  142  A    between atoms: _352  and  _353
REMARK  143  A    between atoms: _352  and  _355
REMARK  144  A    between atoms: _355  and  _356
REMARK  145  A    between atoms: _356  and  _357
REMARK  146  A    between atoms: _360  and  _362
REMARK  147  A    between atoms: _362  and  _363
REMARK  148  A    between atoms: _362  and  _365
REMARK  149  A    between atoms: _365  and  _366
REMARK  150  A    between atoms: _369  and  _371
REMARK  151  A    between atoms: _371  and  _372
REMARK  152  A    between atoms: _375  and  _377
REMARK  153  A    between atoms: _377  and  _378
REMARK  154  A    between atoms: _377  and  _380
REMARK  155  A    between atoms: _380  and  _381
REMARK  156  A    between atoms: _381  and  _382
REMARK  157  A    between atoms: _382  and  _383
REMARK  158  A    between atoms: _393  and  _394
REMARK  159  A    between atoms: _399  and  _401
REMARK  160  A    between atoms: _401  and  _402
REMARK  161  A    between atoms: _401  and  _404
REMARK  162  A    between atoms: _404  and  _405
REMARK  163  A    between atoms: _415  and  _417
REMARK  164  A    between atoms: _417  and  _418
REMARK  165  A    between atoms: _417  and  _420
REMARK  166  A    between atoms: _420  and  _421
REMARK  167  A    between atoms: _426  and  _427
REMARK  168  A    between atoms: _429  and  _431
REMARK  169  A    between atoms: _431  and  _432
REMARK  170  A    between atoms: _431  and  _434
REMARK  171  A    between atoms: _434  and  _435
REMARK  172  A    between atoms: _435  and  _436
REMARK  173  A    between atoms: _436  and  _437
REMARK  174  A    between atoms: _437  and  _438
REMARK  175  A    between atoms: _442  and  _444
REMARK  176  A    between atoms: _444  and  _445
REMARK  177  A    between atoms: _444  and  _447
REMARK  178  A    between atoms: _447  and  _448
REMARK  179  A    between atoms: _451  and  _453
REMARK  180  A    between atoms: _453  and  _454
REMARK  181  A    between atoms: _453  and  _456
REMARK  182  A    between atoms: _459  and  _461
REMARK  183  A    between atoms: _461  and  _462
REMARK  184  A    between atoms: _461  and  _464
REMARK  185  A    between atoms: _464  and  _465
REMARK  186  A    between atoms: _468  and  _470
REMARK  187  A    between atoms: _470  and  _471
REMARK  188  A    between atoms: _470  and  _473
REMARK  189  A    between atoms: _473  and  _474
REMARK  190  A    between atoms: _476  and  _478
REMARK  191  A    between atoms: _478  and  _479
REMARK  192  A    between atoms: _481  and  _483
REMARK  193  A    between atoms: _483  and  _484
REMARK  194  A    between atoms: _483  and  _486
REMARK  195  A    between atoms: _486  and  _487
REMARK  196  A    between atoms: _490  and  _492
REMARK  197  A    between atoms: _492  and  _493
REMARK  198  A    between atoms: _492  and  _495
REMARK  199  A    between atoms: _495  and  _496
REMARK  200  A    between atoms: _499  and  _501
REMARK  201  A    between atoms: _501  and  _502
REMARK  202  A    between atoms: _501  and  _504
REMARK  203  A    between atoms: _504  and  _505
REMARK  204  A    between atoms: _510  and  _512
REMARK  205  A    between atoms: _512  and  _513
REMARK  206  A    between atoms: _512  and  _515
REMARK  207  A    between atoms: _515  and  _516
REMARK  208  A    between atoms: _516  and  _517
REMARK  209  A    between atoms: _517  and  _518
REMARK  210  A    between atoms: _527  and  _529
REMARK  211  A    between atoms: _529  and  _530
REMARK  212  A    between atoms: _529  and  _532
REMARK  213  A    between atoms: _532  and  _533
REMARK  214  A    between atoms: _533  and  _534
REMARK  215  A    between atoms: _534  and  _535
REMARK  216  A    between atoms: _544  and  _546
REMARK  217  A    between atoms: _546  and  _547
REMARK  218  A    between atoms: _546  and  _549
REMARK  219  A    between atoms: _549  and  _550
REMARK  220  A    between atoms: _552  and  _554
REMARK  221  A    between atoms: _554  and  _555
REMARK  222  A    between atoms: _554  and  _557
REMARK  223  A    between atoms: _557  and  _558
REMARK  224  A    between atoms: _560  and  _562
REMARK  225  A    between atoms: _562  and  _563
REMARK  226  A    between atoms: _562  and  _565
REMARK  227  A    between atoms: _565  and  _566
REMARK  228  A    between atoms: _569  and  _571
REMARK  229  A    between atoms: _571  and  _572
REMARK  230  A    between atoms: _571  and  _574
REMARK  231  A    between atoms: _574  and  _575
REMARK  232  A    between atoms: _578  and  _580
REMARK  233  A    between atoms: _580  and  _581
REMARK  234  A    between atoms: _580  and  _583
REMARK  235  A    between atoms: _586  and  _588
REMARK  236  A    between atoms: _588  and  _589
REMARK  237  A    between atoms: _591  and  _593
REMARK  238  A    between atoms: _593  and  _594
REMARK  239  A    between atoms: _597  and  _599
REMARK  240  A    between atoms: _599  and  _600
REMARK  241  A    between atoms: _599  and  _602
REMARK                            x       y       z     vdW  Elec       q    Type
REMARK                         _______ _______ _______ _____ _____    ______ ____
ROOT
ATOM      1  O   HOH     1      17.818   0.006  48.403  0.00  0.00    +0.000 OA
ENDROOT
TORSDOF 0
REMARK  Name = ../refined-set-2016/2fdp/2fdp_pocket.pdb
REMARK  241 active torsions:
REMARK  status: ('A' for Active; 'I' for Inactive)
REMARK    1  A    between atoms: _1  and  _3
REMARK    2  A    between atoms: _3  and  _4
REMARK    3  A    between atoms: _3  and  _6
REMARK    4  A    between atoms: _6  and  _7
REMARK    5  A    between atoms: _7  and  _8
REMARK    6  A    between atoms: _8  and  _9
REMARK    7  A    between atoms: _9  and  _10
REMARK    8  A    between atoms: _14  and  _16
REMARK    9  A    between atoms: _16  and  _17
REMARK   10  A    between atoms: _16  and  _19
REMARK   11  A    between atoms: _19  and  _20
REMARK   12  A    between atoms: _22  and  _24
REMARK   13  A    between atoms: _24  and  _25
REMARK   14  A    between atoms: _27  and  _29
REMARK   15  A    between atoms: _29  and  _30
REMARK   16  A    between atoms: _29  and  _32
REMARK   17  A    between atoms: _32  and  _33
REMARK   18  A    between atoms: _33  and  _34
REMARK   19  A    between atoms: _39  and  _41
REMARK   20  A    between atoms: _41  and  _42
REMARK   21  A    between atoms: _44  and  _46
REMARK   22  A    between atoms: _46  and  _47
REMARK   23  A    between atoms: _46  and  _49
REMARK   24  A    between atoms: _49  and  _50
REMARK   25  A    between atoms: _55  and  _56
REMARK   26  A    between atoms: _58  and  _60
REMARK   27  A    between atoms: _60  and  _61
REMARK   28  A    between atoms: _60  and  _63
REMARK   29  A    between atoms: _63  and  _64
REMARK   30  A    between atoms: _67  and  _69
REMARK   31  A    between atoms: _69  and  _70
REMARK   32  A    between atoms: _69  and  _72
REMARK   33  A    between atoms: _75  and  _77
REMARK   34  A    between atoms: _77  and  _78
REMARK   35  A    between atoms: _77  and  _80
REMARK   36  A    between atoms: _80  and  _81
REMARK   37  A    between atoms: _84  and  _86
REMARK   38  A    between atoms: _86  and  _87
REMARK   39  A    between atoms: _86  and  _89
REMARK   40  A    between atoms: _89  and  _90
REMARK   41  A    between atoms: _93  and  _95
REMARK   42  A    between atoms: _95  and  _96
REMARK   43  A    between atoms: _98  and  _100
REMARK   44  A    between atoms: _100  and  _101
REMARK   45  A    between atoms: _100  and  _103
REMARK   46  A    between atoms: _103  and  _104
REMARK   47  A    between atoms: _106  and  _108
REMARK   48  A    between atoms: _108  and  _109
REMARK   49  A    between atoms: _108  and  _111
REMARK   50  A    between atoms: _111  and  _112
REMARK   51  A    between atoms: _114  and  _116
REMARK   52  A    between atoms: _116  and  _117
REMARK   53  A    between atoms: _116  and  _119
REMARK   54  A    between atoms: _119  and  _120
REMARK   55  A    between atoms: _125  and  _127
REMARK   56  A    between atoms: _127  and  _128
REMARK   57  A    between atoms: _127  and  _130
REMARK   58  A    between atoms: _130  and  _131
REMARK   59  A    between atoms: _136  and  _137
REMARK   60  A    between atoms: _139  and  _141
REMARK   61  A    between atoms: _141  and  _142
REMARK   62  A    between atoms: _141  and  _144
REMARK   63  A    between atoms: _148  and  _149
REMARK   64  A    between atoms: _154  and  _156
REMARK   65  A    between atoms: _156  and  _157
REMARK   66  A    between atoms: _156  and  _159
REMARK   67  A    between atoms: _159  and  _160
REMARK   68  A    between atoms: _165  and  _166
REMARK   69  A    between atoms: _168  and  _170
REMARK   70  A    between atoms: _170  and  _171
REMARK   71  A    between atoms: _170  and  _173
REMARK   72  A    between atoms: _173  and  _174
REMARK   73  A    between atoms: _177  and  _179
REMARK   74  A    between atoms: _179  and  _180
REMARK   75  A    between atoms: _179  and  _182
REMARK   76  A    between atoms: _182  and  _183
REMARK   77  A    between atoms: _183  and  _184
REMARK   78  A    between atoms: _189  and  _191
REMARK   79  A    between atoms: _191  and  _192
REMARK   80  A    between atoms: _194  and  _196
REMARK   81  A    between atoms: _196  and  _197
REMARK   82  A    between atoms: _196  and  _199
REMARK   83  A    between atoms: _199  and  _200
REMARK   84  A    between atoms: _200  and  _201
REMARK   85  A    between atoms: _201  and  _202
REMARK   86  A    between atoms: _202  and  _203
REMARK   87  A    between atoms: _207  and  _209
REMARK   88  A    between atoms: _209  and  _210
REMARK   89  A    between atoms: _209  and  _212
REMARK   90  A    between atoms: _212  and  _213
REMARK   91  A    between atoms: _223  and  _225
REMARK   92  A    between atoms: _225  and  _226
REMARK   93  A    between atoms: _225  and  _228
REMARK   94  A    between atoms: _228  and  _229
REMARK   95  A    between atoms: _232  and  _234
REMARK   96  A    between atoms: _234  and  _235
REMARK   97  A    between atoms: _234  and  _237
REMARK   98  A    between atoms: _237  and  _238
REMARK   99  A    between atoms: _238  and  _239
REMARK  100  A    between atoms: _239  and  _240
REMARK  101  A    between atoms: _240  and  _241
REMARK  102  A    between atoms: _245  and  _247
REMARK  103  A    between atoms: _247  and  _248
REMARK  104  A    between atoms: _247  and  _250
REMARK  105  A    between atoms: _250  and  _251
REMARK  106  A    between atoms: _257  and  _259
REMARK  107  A    between atoms: _259  and  _260
REMARK  108  A    between atoms: _259  and  _262
REMARK  109  A    between atoms: _262  and  _263
REMARK  110  A    between atoms: _269  and  _271
REMARK  111  A    between atoms: _271  and  _272
REMARK  112  A    between atoms: _271  and  _274
REMARK  113  A    between atoms: _274  and  _275
REMARK  114  A    between atoms: _278  and  _280
REMARK  115  A    between atoms: _280  and  _281
REMARK  116  A    between atoms: _280  and  _283
REMARK  117  A    between atoms: _283  and  _284
REMARK  118  A    between atoms: _286  and  _288
REMARK  119  A    between atoms: _288  and  _289
REMARK  120  A    between atoms: _288  and  _291
REMARK  121  A    between atoms: _291  and  _292
REMARK  122  A    between atoms: _302  and  _304
REMARK  123  A    between atoms: _304  and  _305
REMARK  124  A    between atoms: _307  and  _309
REMARK  125  A    between atoms: _309  and  _310
REMARK  126  A    between atoms: _309  and  _312
REMARK  127  A    between atoms: _312  and  _313
REMARK  128  A    between atoms: _316  and  _318
REMARK  129  A    between atoms: _318  and  _319
REMARK  130  A    between atoms: _318  and  _321
REMARK  131  A    between atoms: _321  and  _322
REMARK  132  A    between atoms: _325  and  _327
REMARK  133  A    between atoms: _327  and  _328
REMARK  134  A    between atoms: _330  and  _332
REMARK  135  A    between atoms: _332  and  _333
REMARK  136  A    between atoms: _336  and  _338
REMARK  137  A    between atoms: _338  and  _339
REMARK  138  A    between atoms: _338  and  _341
REMARK  139  A    between atoms: _341  and  _342
REMARK  140  A    between atoms: _347  and  _348
REMARK  141  A    between atoms: _350  and  _352
REMARK  142  A    between atoms: _352  and  _353
REMARK  143  A    between atoms: _352  and  _355
REMARK  144  A    between atoms: _355  and  _356
REMARK  145  A    between atoms: _356  and  _357
REMARK  146  A    between atoms: _360  and  _362
REMARK  147  A    between atoms: _362  and  _363
REMARK  148  A    between atoms: _362  and  _365
REMARK  149  A    between atoms: _365  and  _366
REMARK  150  A    between atoms: _369  and  _371
REMARK  151  A    between atoms: _371  and  _372
REMARK  152  A    between atoms: _375  and  _377
REMARK  153  A    between atoms: _377  and  _378
REMARK  154  A    between atoms: _377  and  _380
REMARK  155  A    between atoms: _380  and  _381
REMARK  156  A    between atoms: _381  and  _382
REMARK  157  A    between atoms: _382  and  _383
REMARK  158  A    between atoms: _393  and  _394
REMARK  159  A    between atoms: _399  and  _401
REMARK  160  A    between atoms: _401  and  _402
REMARK  161  A    between atoms: _401  and  _404
REMARK  162  A    between atoms: _404  and  _405
REMARK  163  A    between atoms: _415  and  _417
REMARK  164  A    between atoms: _417  and  _418
REMARK  165  A    between atoms: _417  and  _420
REMARK  166  A    between atoms: _420  and  _421
REMARK  167  A    between atoms: _426  and  _427
REMARK  168  A    between atoms: _429  and  _431
REMARK  169  A    between atoms: _431  and  _432
REMARK  170  A    between atoms: _431  and  _434
REMARK  171  A    between atoms: _434  and  _435
REMARK  172  A    between atoms: _435  and  _436
REMARK  173  A    between atoms: _436  and  _437
REMARK  174  A    between atoms: _437  and  _438
REMARK  175  A    between atoms: _442  and  _444
REMARK  176  A    between atoms: _444  and  _445
REMARK  177  A    between atoms: _444  and  _447
REMARK  178  A    between atoms: _447  and  _448
REMARK  179  A    between atoms: _451  and  _453
REMARK  180  A    between atoms: _453  and  _454
REMARK  181  A    between atoms: _453  and  _456
REMARK  182  A    between atoms: _459  and  _461
REMARK  183  A    between atoms: _461  and  _462
REMARK  184  A    between atoms: _461  and  _464
REMARK  185  A    between atoms: _464  and  _465
REMARK  186  A    between atoms: _468  and  _470
REMARK  187  A    between atoms: _470  and  _471
REMARK  188  A    between atoms: _470  and  _473
REMARK  189  A    between atoms: _473  and  _474
REMARK  190  A    between atoms: _476  and  _478
REMARK  191  A    between atoms: _478  and  _479
REMARK  192  A    between atoms: _481  and  _483
REMARK  193  A    between atoms: _483  and  _484
REMARK  194  A    between atoms: _483  and  _486
REMARK  195  A    between atoms: _486  and  _487
REMARK  196  A    between atoms: _490  and  _492
REMARK  197  A    between atoms: _492  and  _493
REMARK  198  A    between atoms: _492  and  _495
REMARK  199  A    between atoms: _495  and  _496
REMARK  200  A    between atoms: _499  and  _501
REMARK  201  A    between atoms: _501  and  _502
REMARK  202  A    between atoms: _501  and  _504
REMARK  203  A    between atoms: _504  and  _505
REMARK  204  A    between atoms: _510  and  _512
REMARK  205  A    between atoms: _512  and  _513
REMARK  206  A    between atoms: _512  and  _515
REMARK  207  A    between atoms: _515  and  _516
REMARK  208  A    between atoms: _516  and  _517
REMARK  209  A    between atoms: _517  and  _518
REMARK  210  A    between atoms: _527  and  _529
REMARK  211  A    between atoms: _529  and  _530
REMARK  212  A    between atoms: _529  and  _532
REMARK  213  A    between atoms: _532  and  _533
REMARK  214  A    between atoms: _533  and  _534
REMARK  215  A    between atoms: _534  and  _535
REMARK  216  A    between atoms: _544  and  _546
REMARK  217  A    between atoms: _546  and  _547
REMARK  218  A    between atoms: _546  and  _549
REMARK  219  A    between atoms: _549  and  _550
REMARK  220  A    between atoms: _552  and  _554
REMARK  221  A    between atoms: _554  and  _555
REMARK  222  A    between atoms: _554  and  _557
REMARK  223  A    between atoms: _557  and  _558
REMARK  224  A    between atoms: _560  and  _562
REMARK  225  A    between atoms: _562  and  _563
REMARK  226  A    between atoms: _562  and  _565
REMARK  227  A    between atoms: _565  and  _566
REMARK  228  A    between atoms: _569  and  _571
REMARK  229  A    between atoms: _571  and  _572
REMARK  230  A    between atoms: _571  and  _574
REMARK  231  A    between atoms: _574  and  _575
REMARK  232  A    between atoms: _578  and  _580
REMARK  233  A    between atoms: _580  and  _581
REMARK  234  A    between atoms: _580  and  _583
REMARK  235  A    between atoms: _586  and  _588
REMARK  236  A    between atoms: _588  and  _589
REMARK  237  A    between atoms: _591  and  _593
REMARK  238  A    between atoms: _593  and  _594
REMARK  239  A    between atoms: _597  and  _599
REMARK  240  A    between atoms: _599  and  _600
REMARK  241  A    between atoms: _599  and  _602
REMARK                            x       y       z     vdW  Elec       q    Type
REMARK                         _______ _______ _______ _____ _____    ______ ____
ROOT
ATOM      1  O   HOH     1      18.684  -2.538  49.405  0.00  0.00    +0.000 OA
ENDROOT
TORSDOF 0
REMARK  Name = ../refined-set-2016/2fdp/2fdp_pocket.pdb
REMARK  241 active torsions:
REMARK  status: ('A' for Active; 'I' for Inactive)
REMARK    1  A    between atoms: _1  and  _3
REMARK    2  A    between atoms: _3  and  _4
REMARK    3  A    between atoms: _3  and  _6
REMARK    4  A    between atoms: _6  and  _7
REMARK    5  A    between atoms: _7  and  _8
REMARK    6  A    between atoms: _8  and  _9
REMARK    7  A    between atoms: _9  and  _10
REMARK    8  A    between atoms: _14  and  _16
REMARK    9  A    between atoms: _16  and  _17
REMARK   10  A    between atoms: _16  and  _19
REMARK   11  A    between atoms: _19  and  _20
REMARK   12  A    between atoms: _22  and  _24
REMARK   13  A    between atoms: _24  and  _25
REMARK   14  A    between atoms: _27  and  _29
REMARK   15  A    between atoms: _29  and  _30
REMARK   16  A    between atoms: _29  and  _32
REMARK   17  A    between atoms: _32  and  _33
REMARK   18  A    between atoms: _33  and  _34
REMARK   19  A    between atoms: _39  and  _41
REMARK   20  A    between atoms: _41  and  _42
REMARK   21  A    between atoms: _44  and  _46
REMARK   22  A    between atoms: _46  and  _47
REMARK   23  A    between atoms: _46  and  _49
REMARK   24  A    between atoms: _49  and  _50
REMARK   25  A    between atoms: _55  and  _56
REMARK   26  A    between atoms: _58  and  _60
REMARK   27  A    between atoms: _60  and  _61
REMARK   28  A    between atoms: _60  and  _63
REMARK   29  A    between atoms: _63  and  _64
REMARK   30  A    between atoms: _67  and  _69
REMARK   31  A    between atoms: _69  and  _70
REMARK   32  A    between atoms: _69  and  _72
REMARK   33  A    between atoms: _75  and  _77
REMARK   34  A    between atoms: _77  and  _78
REMARK   35  A    between atoms: _77  and  _80
REMARK   36  A    between atoms: _80  and  _81
REMARK   37  A    between atoms: _84  and  _86
REMARK   38  A    between atoms: _86  and  _87
REMARK   39  A    between atoms: _86  and  _89
REMARK   40  A    between atoms: _89  and  _90
REMARK   41  A    between atoms: _93  and  _95
REMARK   42  A    between atoms: _95  and  _96
REMARK   43  A    between atoms: _98  and  _100
REMARK   44  A    between atoms: _100  and  _101
REMARK   45  A    between atoms: _100  and  _103
REMARK   46  A    between atoms: _103  and  _104
REMARK   47  A    between atoms: _106  and  _108
REMARK   48  A    between atoms: _108  and  _109
REMARK   49  A    between atoms: _108  and  _111
REMARK   50  A    between atoms: _111  and  _112
REMARK   51  A    between atoms: _114  and  _116
REMARK   52  A    between atoms: _116  and  _117
REMARK   53  A    between atoms: _116  and  _119
REMARK   54  A    between atoms: _119  and  _120
REMARK   55  A    between atoms: _125  and  _127
REMARK   56  A    between atoms: _127  and  _128
REMARK   57  A    between atoms: _127  and  _130
REMARK   58  A    between atoms: _130  and  _131
REMARK   59  A    between atoms: _136  and  _137
REMARK   60  A    between atoms: _139  and  _141
REMARK   61  A    between atoms: _141  and  _142
REMARK   62  A    between atoms: _141  and  _144
REMARK   63  A    between atoms: _148  and  _149
REMARK   64  A    between atoms: _154  and  _156
REMARK   65  A    between atoms: _156  and  _157
REMARK   66  A    between atoms: _156  and  _159
REMARK   67  A    between atoms: _159  and  _160
REMARK   68  A    between atoms: _165  and  _166
REMARK   69  A    between atoms: _168  and  _170
REMARK   70  A    between atoms: _170  and  _171
REMARK   71  A    between atoms: _170  and  _173
REMARK   72  A    between atoms: _173  and  _174
REMARK   73  A    between atoms: _177  and  _179
REMARK   74  A    between atoms: _179  and  _180
REMARK   75  A    between atoms: _179  and  _182
REMARK   76  A    between atoms: _182  and  _183
REMARK   77  A    between atoms: _183  and  _184
REMARK   78  A    between atoms: _189  and  _191
REMARK   79  A    between atoms: _191  and  _192
REMARK   80  A    between atoms: _194  and  _196
REMARK   81  A    between atoms: _196  and  _197
REMARK   82  A    between atoms: _196  and  _199
REMARK   83  A    between atoms: _199  and  _200
REMARK   84  A    between atoms: _200  and  _201
REMARK   85  A    between atoms: _201  and  _202
REMARK   86  A    between atoms: _202  and  _203
REMARK   87  A    between atoms: _207  and  _209
REMARK   88  A    between atoms: _209  and  _210
REMARK   89  A    between atoms: _209  and  _212
REMARK   90  A    between atoms: _212  and  _213
REMARK   91  A    between atoms: _223  and  _225
REMARK   92  A    between atoms: _225  and  _226
REMARK   93  A    between atoms: _225  and  _228
REMARK   94  A    between atoms: _228  and  _229
REMARK   95  A    between atoms: _232  and  _234
REMARK   96  A    between atoms: _234  and  _235
REMARK   97  A    between atoms: _234  and  _237
REMARK   98  A    between atoms: _237  and  _238
REMARK   99  A    between atoms: _238  and  _239
REMARK  100  A    between atoms: _239  and  _240
REMARK  101  A    between atoms: _240  and  _241
REMARK  102  A    between atoms: _245  and  _247
REMARK  103  A    between atoms: _247  and  _248
REMARK  104  A    between atoms: _247  and  _250
REMARK  105  A    between atoms: _250  and  _251
REMARK  106  A    between atoms: _257  and  _259
REMARK  107  A    between atoms: _259  and  _260
REMARK  108  A    between atoms: _259  and  _262
REMARK  109  A    between atoms: _262  and  _263
REMARK  110  A    between atoms: _269  and  _271
REMARK  111  A    between atoms: _271  and  _272
REMARK  112  A    between atoms: _271  and  _274
REMARK  113  A    between atoms: _274  and  _275
REMARK  114  A    between atoms: _278  and  _280
REMARK  115  A    between atoms: _280  and  _281
REMARK  116  A    between atoms: _280  and  _283
REMARK  117  A    between atoms: _283  and  _284
REMARK  118  A    between atoms: _286  and  _288
REMARK  119  A    between atoms: _288  and  _289
REMARK  120  A    between atoms: _288  and  _291
REMARK  121  A    between atoms: _291  and  _292
REMARK  122  A    between atoms: _302  and  _304
REMARK  123  A    between atoms: _304  and  _305
REMARK  124  A    between atoms: _307  and  _309
REMARK  125  A    between atoms: _309  and  _310
REMARK  126  A    between atoms: _309  and  _312
REMARK  127  A    between atoms: _312  and  _313
REMARK  128  A    between atoms: _316  and  _318
REMARK  129  A    between atoms: _318  and  _319
REMARK  130  A    between atoms: _318  and  _321
REMARK  131  A    between atoms: _321  and  _322
REMARK  132  A    between atoms: _325  and  _327
REMARK  133  A    between atoms: _327  and  _328
REMARK  134  A    between atoms: _330  and  _332
REMARK  135  A    between atoms: _332  and  _333
REMARK  136  A    between atoms: _336  and  _338
REMARK  137  A    between atoms: _338  and  _339
REMARK  138  A    between atoms: _338  and  _341
REMARK  139  A    between atoms: _341  and  _342
REMARK  140  A    between atoms: _347  and  _348
REMARK  141  A    between atoms: _350  and  _352
REMARK  142  A    between atoms: _352  and  _353
REMARK  143  A    between atoms: _352  and  _355
REMARK  144  A    between atoms: _355  and  _356
REMARK  145  A    between atoms: _356  and  _357
REMARK  146  A    between atoms: _360  and  _362
REMARK  147  A    between atoms: _362  and  _363
REMARK  148  A    between atoms: _362  and  _365
REMARK  149  A    between atoms: _365  and  _366
REMARK  150  A    between atoms: _369  and  _371
REMARK  151  A    between atoms: _371  and  _372
REMARK  152  A    between atoms: _375  and  _377
REMARK  153  A    between atoms: _377  and  _378
REMARK  154  A    between atoms: _377  and  _380
REMARK  155  A    between atoms: _380  and  _381
REMARK  156  A    between atoms: _381  and  _382
REMARK  157  A    between atoms: _382  and  _383
REMARK  158  A    between atoms: _393  and  _394
REMARK  159  A    between atoms: _399  and  _401
REMARK  160  A    between atoms: _401  and  _402
REMARK  161  A    between atoms: _401  and  _404
REMARK  162  A    between atoms: _404  and  _405
REMARK  163  A    between atoms: _415  and  _417
REMARK  164  A    between atoms: _417  and  _418
REMARK  165  A    between atoms: _417  and  _420
REMARK  166  A    between atoms: _420  and  _421
REMARK  167  A    between atoms: _426  and  _427
REMARK  168  A    between atoms: _429  and  _431
REMARK  169  A    between atoms: _431  and  _432
REMARK  170  A    between atoms: _431  and  _434
REMARK  171  A    between atoms: _434  and  _435
REMARK  172  A    between atoms: _435  and  _436
REMARK  173  A    between atoms: _436  and  _437
REMARK  174  A    between atoms: _437  and  _438
REMARK  175  A    between atoms: _442  and  _444
REMARK  176  A    between atoms: _444  and  _445
REMARK  177  A    between atoms: _444  and  _447
REMARK  178  A    between atoms: _447  and  _448
REMARK  179  A    between atoms: _451  and  _453
REMARK  180  A    between atoms: _453  and  _454
REMARK  181  A    between atoms: _453  and  _456
REMARK  182  A    between atoms: _459  and  _461
REMARK  183  A    between atoms: _461  and  _462
REMARK  184  A    between atoms: _461  and  _464
REMARK  185  A    between atoms: _464  and  _465
REMARK  186  A    between atoms: _468  and  _470
REMARK  187  A    between atoms: _470  and  _471
REMARK  188  A    between atoms: _470  and  _473
REMARK  189  A    between atoms: _473  and  _474
REMARK  190  A    between atoms: _476  and  _478
REMARK  191  A    between atoms: _478  and  _479
REMARK  192  A    between atoms: _481  and  _483
REMARK  193  A    between atoms: _483  and  _484
REMARK  194  A    between atoms: _483  and  _486
REMARK  195  A    between atoms: _486  and  _487
REMARK  196  A    between atoms: _490  and  _492
REMARK  197  A    between atoms: _492  and  _493
REMARK  198  A    between atoms: _492  and  _495
REMARK  199  A    between atoms: _495  and  _496
REMARK  200  A    between atoms: _499  and  _501
REMARK  201  A    between atoms: _501  and  _502
REMARK  202  A    between atoms: _501  and  _504
REMARK  203  A    between atoms: _504  and  _505
REMARK  204  A    between atoms: _510  and  _512
REMARK  205  A    between atoms: _512  and  _513
REMARK  206  A    between atoms: _512  and  _515
REMARK  207  A    between atoms: _515  and  _516
REMARK  208  A    between atoms: _516  and  _517
REMARK  209  A    between atoms: _517  and  _518
REMARK  210  A    between atoms: _527  and  _529
REMARK  211  A    between atoms: _529  and  _530
REMARK  212  A    between atoms: _529  and  _532
REMARK  213  A    between atoms: _532  and  _533
REMARK  214  A    between atoms: _533  and  _534
REMARK  215  A    between atoms: _534  and  _535
REMARK  216  A    between atoms: _544  and  _546
REMARK  217  A    between atoms: _546  and  _547
REMARK  218  A    between atoms: _546  and  _549
REMARK  219  A    between atoms: _549  and  _550
REMARK  220  A    between atoms: _552  and  _554
REMARK  221  A    between atoms: _554  and  _555
REMARK  222  A    between atoms: _554  and  _557
REMARK  223  A    between atoms: _557  and  _558
REMARK  224  A    between atoms: _560  and  _562
REMARK  225  A    between atoms: _562  and  _563
REMARK  226  A    between atoms: _562  and  _565
REMARK  227  A    between atoms: _565  and  _566
REMARK  228  A    between atoms: _569  and  _571
REMARK  229  A    between atoms: _571  and  _572
REMARK  230  A    between atoms: _571  and  _574
REMARK  231  A    between atoms: _574  and  _575
REMARK  232  A    between atoms: _578  and  _580
REMARK  233  A    between atoms: _580  and  _581
REMARK  234  A    between atoms: _580  and  _583
REMARK  235  A    between atoms: _586  and  _588
REMARK  236  A    between atoms: _588  and  _589
REMARK  237  A    between atoms: _591  and  _593
REMARK  238  A    between atoms: _593  and  _594
REMARK  239  A    between atoms: _597  and  _599
REMARK  240  A    between atoms: _599  and  _600
REMARK  241  A    between atoms: _599  and  _602
REMARK                            x       y       z     vdW  Elec       q    Type
REMARK                         _______ _______ _______ _____ _____    ______ ____
ROOT
ATOM      1  O   HOH     1       5.203  -2.338  41.432  0.00  0.00    +0.000 OA
ENDROOT
TORSDOF 0
