REMARK  Name = ../refined-set-2016/2o4s/2o4s_pocket.pdb
REMARK  234 active torsions:
REMARK  status: ('A' for Active; 'I' for Inactive)
REMARK    1  A    between atoms: _1  and  _3
REMARK    2  A    between atoms: _3  and  _4
REMARK    3  A    between atoms: _3  and  _6
REMARK    4  A    between atoms: _6  and  _7
REMARK    5  A    between atoms: _7  and  _8
REMARK    6  A    between atoms: _8  and  _9
REMARK    7  A    between atoms: _18  and  _20
REMARK    8  A    between atoms: _20  and  _21
REMARK    9  A    between atoms: _20  and  _23
REMARK   10  A    between atoms: _23  and  _24
REMARK   11  A    between atoms: _27  and  _29
REMARK   12  A    between atoms: _29  and  _30
REMARK   13  A    between atoms: _29  and  _32
REMARK   14  A    between atoms: _32  and  _33
REMARK   15  A    between atoms: _36  and  _38
REMARK   16  A    between atoms: _38  and  _39
REMARK   17  A    between atoms: _38  and  _41
REMARK   18  A    between atoms: _41  and  _42
REMARK   19  A    between atoms: _45  and  _47
REMARK   20  A    between atoms: _47  and  _48
REMARK   21  A    between atoms: _47  and  _50
REMARK   22  A    between atoms: _50  and  _51
REMARK   23  A    between atoms: _54  and  _56
REMARK   24  A    between atoms: _56  and  _57
REMARK   25  A    between atoms: _59  and  _61
REMARK   26  A    between atoms: _61  and  _62
REMARK   27  A    between atoms: _65  and  _67
REMARK   28  A    between atoms: _67  and  _68
REMARK   29  A    between atoms: _67  and  _70
REMARK   30  A    between atoms: _70  and  _71
REMARK   31  A    between atoms: _74  and  _76
REMARK   32  A    between atoms: _76  and  _77
REMARK   33  A    between atoms: _76  and  _79
REMARK   34  A    between atoms: _79  and  _80
REMARK   35  A    between atoms: _83  and  _85
REMARK   36  A    between atoms: _85  and  _86
REMARK   37  A    between atoms: _85  and  _88
REMARK   38  A    between atoms: _88  and  _89
REMARK   39  A    between atoms: _92  and  _94
REMARK   40  A    between atoms: _94  and  _95
REMARK   41  A    between atoms: _94  and  _97
REMARK   42  A    between atoms: _100  and  _102
REMARK   43  A    between atoms: _102  and  _103
REMARK   44  A    between atoms: _102  and  _105
REMARK   45  A    between atoms: _105  and  _106
REMARK   46  A    between atoms: _106  and  _107
REMARK   47  A    between atoms: _107  and  _108
REMARK   48  A    between atoms: _108  and  _109
REMARK   49  A    between atoms: _113  and  _115
REMARK   50  A    between atoms: _115  and  _116
REMARK   51  A    between atoms: _115  and  _118
REMARK   52  A    between atoms: _118  and  _119
REMARK   53  A    between atoms: _119  and  _120
REMARK   54  A    between atoms: _122  and  _124
REMARK   55  A    between atoms: _124  and  _125
REMARK   56  A    between atoms: _124  and  _127
REMARK   57  A    between atoms: _127  and  _128
REMARK   58  A    between atoms: _131  and  _133
REMARK   59  A    between atoms: _133  and  _134
REMARK   60  A    between atoms: _136  and  _138
REMARK   61  A    between atoms: _138  and  _139
REMARK   62  A    between atoms: _141  and  _143
REMARK   63  A    between atoms: _143  and  _144
REMARK   64  A    between atoms: _143  and  _146
REMARK   65  A    between atoms: _146  and  _147
REMARK   66  A    between atoms: _150  and  _152
REMARK   67  A    between atoms: _152  and  _153
REMARK   68  A    between atoms: _155  and  _157
REMARK   69  A    between atoms: _157  and  _158
REMARK   70  A    between atoms: _160  and  _162
REMARK   71  A    between atoms: _162  and  _163
REMARK   72  A    between atoms: _162  and  _165
REMARK   73  A    between atoms: _165  and  _166
REMARK   74  A    between atoms: _172  and  _174
REMARK   75  A    between atoms: _174  and  _175
REMARK   76  A    between atoms: _174  and  _177
REMARK   77  A    between atoms: _177  and  _178
REMARK   78  A    between atoms: _181  and  _183
REMARK   79  A    between atoms: _183  and  _184
REMARK   80  A    between atoms: _183  and  _186
REMARK   81  A    between atoms: _189  and  _191
REMARK   82  A    between atoms: _191  and  _192
REMARK   83  A    between atoms: _191  and  _194
REMARK   84  A    between atoms: _194  and  _195
REMARK   85  A    between atoms: _199  and  _200
REMARK   86  A    between atoms: _205  and  _207
REMARK   87  A    between atoms: _207  and  _208
REMARK   88  A    between atoms: _207  and  _210
REMARK   89  A    between atoms: _210  and  _211
REMARK   90  A    between atoms: _215  and  _216
REMARK   91  A    between atoms: _221  and  _223
REMARK   92  A    between atoms: _223  and  _224
REMARK   93  A    between atoms: _223  and  _226
REMARK   94  A    between atoms: _229  and  _231
REMARK   95  A    between atoms: _231  and  _232
REMARK   96  A    between atoms: _231  and  _234
REMARK   97  A    between atoms: _234  and  _235
REMARK   98  A    between atoms: _240  and  _242
REMARK   99  A    between atoms: _242  and  _243
REMARK  100  A    between atoms: _242  and  _245
REMARK  101  A    between atoms: _245  and  _246
REMARK  102  A    between atoms: _249  and  _251
REMARK  103  A    between atoms: _251  and  _252
REMARK  104  A    between atoms: _251  and  _254
REMARK  105  A    between atoms: _254  and  _255
REMARK  106  A    between atoms: _258  and  _260
REMARK  107  A    between atoms: _260  and  _261
REMARK  108  A    between atoms: _263  and  _265
REMARK  109  A    between atoms: _265  and  _266
REMARK  110  A    between atoms: _265  and  _268
REMARK  111  A    between atoms: _268  and  _269
REMARK  112  A    between atoms: _269  and  _270
REMARK  113  A    between atoms: _270  and  _271
REMARK  114  A    between atoms: _280  and  _282
REMARK  115  A    between atoms: _282  and  _283
REMARK  116  A    between atoms: _282  and  _285
REMARK  117  A    between atoms: _285  and  _286
REMARK  118  A    between atoms: _286  and  _287
REMARK  119  A    between atoms: _287  and  _288
REMARK  120  A    between atoms: _297  and  _299
REMARK  121  A    between atoms: _299  and  _300
REMARK  122  A    between atoms: _299  and  _302
REMARK  123  A    between atoms: _302  and  _303
REMARK  124  A    between atoms: _306  and  _308
REMARK  125  A    between atoms: _308  and  _309
REMARK  126  A    between atoms: _308  and  _311
REMARK  127  A    between atoms: _311  and  _312
REMARK  128  A    between atoms: _315  and  _317
REMARK  129  A    between atoms: _317  and  _318
REMARK  130  A    between atoms: _317  and  _320
REMARK  131  A    between atoms: _320  and  _321
REMARK  132  A    between atoms: _324  and  _326
REMARK  133  A    between atoms: _326  and  _327
REMARK  134  A    between atoms: _326  and  _329
REMARK  135  A    between atoms: _329  and  _330
REMARK  136  A    between atoms: _333  and  _335
REMARK  137  A    between atoms: _335  and  _336
REMARK  138  A    between atoms: _338  and  _340
REMARK  139  A    between atoms: _340  and  _341
REMARK  140  A    between atoms: _344  and  _346
REMARK  141  A    between atoms: _346  and  _347
REMARK  142  A    between atoms: _346  and  _349
REMARK  143  A    between atoms: _349  and  _350
REMARK  144  A    between atoms: _353  and  _355
REMARK  145  A    between atoms: _355  and  _356
REMARK  146  A    between atoms: _355  and  _358
REMARK  147  A    between atoms: _358  and  _359
REMARK  148  A    between atoms: _362  and  _364
REMARK  149  A    between atoms: _364  and  _365
REMARK  150  A    between atoms: _364  and  _367
REMARK  151  A    between atoms: _367  and  _368
REMARK  152  A    between atoms: _371  and  _373
REMARK  153  A    between atoms: _373  and  _374
REMARK  154  A    between atoms: _373  and  _376
REMARK  155  A    between atoms: _379  and  _381
REMARK  156  A    between atoms: _381  and  _382
REMARK  157  A    between atoms: _381  and  _384
REMARK  158  A    between atoms: _384  and  _385
REMARK  159  A    between atoms: _388  and  _390
REMARK  160  A    between atoms: _390  and  _391
REMARK  161  A    between atoms: _390  and  _393
REMARK  162  A    between atoms: _393  and  _394
REMARK  163  A    between atoms: _394  and  _395
REMARK  164  A    between atoms: _395  and  _396
REMARK  165  A    between atoms: _396  and  _397
REMARK  166  A    between atoms: _401  and  _403
REMARK  167  A    between atoms: _403  and  _404
REMARK  168  A    between atoms: _403  and  _406
REMARK  169  A    between atoms: _406  and  _407
REMARK  170  A    between atoms: _407  and  _408
REMARK  171  A    between atoms: _410  and  _412
REMARK  172  A    between atoms: _412  and  _413
REMARK  173  A    between atoms: _412  and  _415
REMARK  174  A    between atoms: _415  and  _416
REMARK  175  A    between atoms: _419  and  _421
REMARK  176  A    between atoms: _421  and  _422
REMARK  177  A    between atoms: _424  and  _426
REMARK  178  A    between atoms: _426  and  _427
REMARK  179  A    between atoms: _429  and  _431
REMARK  180  A    between atoms: _431  and  _432
REMARK  181  A    between atoms: _431  and  _434
REMARK  182  A    between atoms: _434  and  _435
REMARK  183  A    between atoms: _438  and  _440
REMARK  184  A    between atoms: _440  and  _441
REMARK  185  A    between atoms: _443  and  _445
REMARK  186  A    between atoms: _445  and  _446
REMARK  187  A    between atoms: _448  and  _450
REMARK  188  A    between atoms: _450  and  _451
REMARK  189  A    between atoms: _450  and  _453
REMARK  190  A    between atoms: _453  and  _454
REMARK  191  A    between atoms: _460  and  _462
REMARK  192  A    between atoms: _462  and  _463
REMARK  193  A    between atoms: _462  and  _465
REMARK  194  A    between atoms: _465  and  _466
REMARK  195  A    between atoms: _469  and  _471
REMARK  196  A    between atoms: _471  and  _472
REMARK  197  A    between atoms: _471  and  _474
REMARK  198  A    between atoms: _477  and  _479
REMARK  199  A    between atoms: _479  and  _480
REMARK  200  A    between atoms: _479  and  _482
REMARK  201  A    between atoms: _482  and  _483
REMARK  202  A    between atoms: _487  and  _488
REMARK  203  A    between atoms: _493  and  _495
REMARK  204  A    between atoms: _495  and  _496
REMARK  205  A    between atoms: _495  and  _498
REMARK  206  A    between atoms: _498  and  _499
REMARK  207  A    between atoms: _503  and  _504
REMARK  208  A    between atoms: _509  and  _511
REMARK  209  A    between atoms: _511  and  _512
REMARK  210  A    between atoms: _511  and  _514
REMARK  211  A    between atoms: _517  and  _519
REMARK  212  A    between atoms: _519  and  _520
REMARK  213  A    between atoms: _519  and  _522
REMARK  214  A    between atoms: _522  and  _523
REMARK  215  A    between atoms: _528  and  _530
REMARK  216  A    between atoms: _530  and  _531
REMARK  217  A    between atoms: _530  and  _533
REMARK  218  A    between atoms: _533  and  _534
REMARK  219  A    between atoms: _537  and  _539
REMARK  220  A    between atoms: _539  and  _540
REMARK  221  A    between atoms: _539  and  _542
REMARK  222  A    between atoms: _542  and  _543
REMARK  223  A    between atoms: _546  and  _548
REMARK  224  A    between atoms: _548  and  _549
REMARK  225  A    between atoms: _551  and  _553
REMARK  226  A    between atoms: _553  and  _554
REMARK  227  A    between atoms: _553  and  _556
REMARK  228  A    between atoms: _556  and  _557
REMARK  229  A    between atoms: _557  and  _558
REMARK  230  A    between atoms: _558  and  _559
REMARK  231  A    between atoms: _568  and  _570
REMARK  232  A    between atoms: _570  and  _571
REMARK  233  A    between atoms: _570  and  _573
REMARK  234  A    between atoms: _573  and  _574
REMARK                            x       y       z     vdW  Elec       q    Type
REMARK                         _______ _______ _______ _____ _____    ______ ____
ROOT
ATOM      1  NE  ARG A   1      23.053 -22.466 -15.283  0.00  0.00    -0.265 N 
ATOM      2  CZ  ARG A   1      22.944 -23.585 -14.558  0.00  0.00    +0.342 C 
ATOM      3  NH2 ARG A   1      23.526 -23.691 -13.364  0.00  0.00    -0.292 N 
ATOM      4 HH21 ARG A   1      23.430 -24.569 -12.815  0.00  0.00    +0.255 HD
ATOM      5 HH22 ARG A   1      24.076 -22.896 -12.981  0.00  0.00    +0.255 HD
ATOM      6  NH1 ARG A   1      22.239 -24.613 -15.029  0.00  0.00    -0.292 N 
ATOM      7 HH11 ARG A   1      22.152 -25.484 -14.468  0.00  0.00    +0.255 HD
ATOM      8 HH12 ARG A   1      21.776 -24.544 -15.958  0.00  0.00    +0.255 HD
ATOM      9  HE  ARG A   1      22.590 -22.453 -16.214  0.00  0.00    +0.259 HD
ENDROOT
BRANCH   1  10
ATOM     10  CD  ARG A   1      23.769 -21.263 -14.873  0.00  0.00    +0.174 C 
BRANCH  10  11
ATOM     11  CG  ARG A   1      24.153 -20.419 -16.084  0.00  0.00    +0.045 C 
BRANCH  11  12
ATOM     12  CB  ARG A   1      24.715 -19.093 -15.641  0.00  0.00    +0.029 C 
BRANCH  12  13
ATOM     13  CA  ARG A   1      25.365 -18.304 -16.765  0.00  0.00    +0.133 C 
BRANCH  13  14
ATOM     14  N   ARG A   1      26.604 -18.959 -17.234  0.00  0.00    -0.239 NA
ATOM     15  H   ARG A   1      26.926 -19.842 -16.788  0.00  0.00    +0.142 HD
ENDBRANCH  13  14
BRANCH  13  16
ATOM     16  C   ARG A   1      25.703 -16.897 -16.269  0.00  0.00    +0.224 C 
ATOM     17  O   ARG A   1      26.690 -16.737 -15.541  0.00  0.00    -0.287 OA
ENDBRANCH  13  16
ENDBRANCH  12  13
ENDBRANCH  11  12
ENDBRANCH  10  11
ENDBRANCH   1  10
TORSDOF 6
REMARK  Name = ../refined-set-2016/2o4s/2o4s_pocket.pdb
REMARK  234 active torsions:
REMARK  status: ('A' for Active; 'I' for Inactive)
REMARK    1  A    between atoms: _1  and  _3
REMARK    2  A    between atoms: _3  and  _4
REMARK    3  A    between atoms: _3  and  _6
REMARK    4  A    between atoms: _6  and  _7
REMARK    5  A    between atoms: _7  and  _8
REMARK    6  A    between atoms: _8  and  _9
REMARK    7  A    between atoms: _18  and  _20
REMARK    8  A    between atoms: _20  and  _21
REMARK    9  A    between atoms: _20  and  _23
REMARK   10  A    between atoms: _23  and  _24
REMARK   11  A    between atoms: _27  and  _29
REMARK   12  A    between atoms: _29  and  _30
REMARK   13  A    between atoms: _29  and  _32
REMARK   14  A    between atoms: _32  and  _33
REMARK   15  A    between atoms: _36  and  _38
REMARK   16  A    between atoms: _38  and  _39
REMARK   17  A    between atoms: _38  and  _41
REMARK   18  A    between atoms: _41  and  _42
REMARK   19  A    between atoms: _45  and  _47
REMARK   20  A    between atoms: _47  and  _48
REMARK   21  A    between atoms: _47  and  _50
REMARK   22  A    between atoms: _50  and  _51
REMARK   23  A    between atoms: _54  and  _56
REMARK   24  A    between atoms: _56  and  _57
REMARK   25  A    between atoms: _59  and  _61
REMARK   26  A    between atoms: _61  and  _62
REMARK   27  A    between atoms: _65  and  _67
REMARK   28  A    between atoms: _67  and  _68
REMARK   29  A    between atoms: _67  and  _70
REMARK   30  A    between atoms: _70  and  _71
REMARK   31  A    between atoms: _74  and  _76
REMARK   32  A    between atoms: _76  and  _77
REMARK   33  A    between atoms: _76  and  _79
REMARK   34  A    between atoms: _79  and  _80
REMARK   35  A    between atoms: _83  and  _85
REMARK   36  A    between atoms: _85  and  _86
REMARK   37  A    between atoms: _85  and  _88
REMARK   38  A    between atoms: _88  and  _89
REMARK   39  A    between atoms: _92  and  _94
REMARK   40  A    between atoms: _94  and  _95
REMARK   41  A    between atoms: _94  and  _97
REMARK   42  A    between atoms: _100  and  _102
REMARK   43  A    between atoms: _102  and  _103
REMARK   44  A    between atoms: _102  and  _105
REMARK   45  A    between atoms: _105  and  _106
REMARK   46  A    between atoms: _106  and  _107
REMARK   47  A    between atoms: _107  and  _108
REMARK   48  A    between atoms: _108  and  _109
REMARK   49  A    between atoms: _113  and  _115
REMARK   50  A    between atoms: _115  and  _116
REMARK   51  A    between atoms: _115  and  _118
REMARK   52  A    between atoms: _118  and  _119
REMARK   53  A    between atoms: _119  and  _120
REMARK   54  A    between atoms: _122  and  _124
REMARK   55  A    between atoms: _124  and  _125
REMARK   56  A    between atoms: _124  and  _127
REMARK   57  A    between atoms: _127  and  _128
REMARK   58  A    between atoms: _131  and  _133
REMARK   59  A    between atoms: _133  and  _134
REMARK   60  A    between atoms: _136  and  _138
REMARK   61  A    between atoms: _138  and  _139
REMARK   62  A    between atoms: _141  and  _143
REMARK   63  A    between atoms: _143  and  _144
REMARK   64  A    between atoms: _143  and  _146
REMARK   65  A    between atoms: _146  and  _147
REMARK   66  A    between atoms: _150  and  _152
REMARK   67  A    between atoms: _152  and  _153
REMARK   68  A    between atoms: _155  and  _157
REMARK   69  A    between atoms: _157  and  _158
REMARK   70  A    between atoms: _160  and  _162
REMARK   71  A    between atoms: _162  and  _163
REMARK   72  A    between atoms: _162  and  _165
REMARK   73  A    between atoms: _165  and  _166
REMARK   74  A    between atoms: _172  and  _174
REMARK   75  A    between atoms: _174  and  _175
REMARK   76  A    between atoms: _174  and  _177
REMARK   77  A    between atoms: _177  and  _178
REMARK   78  A    between atoms: _181  and  _183
REMARK   79  A    between atoms: _183  and  _184
REMARK   80  A    between atoms: _183  and  _186
REMARK   81  A    between atoms: _189  and  _191
REMARK   82  A    between atoms: _191  and  _192
REMARK   83  A    between atoms: _191  and  _194
REMARK   84  A    between atoms: _194  and  _195
REMARK   85  A    between atoms: _199  and  _200
REMARK   86  A    between atoms: _205  and  _207
REMARK   87  A    between atoms: _207  and  _208
REMARK   88  A    between atoms: _207  and  _210
REMARK   89  A    between atoms: _210  and  _211
REMARK   90  A    between atoms: _215  and  _216
REMARK   91  A    between atoms: _221  and  _223
REMARK   92  A    between atoms: _223  and  _224
REMARK   93  A    between atoms: _223  and  _226
REMARK   94  A    between atoms: _229  and  _231
REMARK   95  A    between atoms: _231  and  _232
REMARK   96  A    between atoms: _231  and  _234
REMARK   97  A    between atoms: _234  and  _235
REMARK   98  A    between atoms: _240  and  _242
REMARK   99  A    between atoms: _242  and  _243
REMARK  100  A    between atoms: _242  and  _245
REMARK  101  A    between atoms: _245  and  _246
REMARK  102  A    between atoms: _249  and  _251
REMARK  103  A    between atoms: _251  and  _252
REMARK  104  A    between atoms: _251  and  _254
REMARK  105  A    between atoms: _254  and  _255
REMARK  106  A    between atoms: _258  and  _260
REMARK  107  A    between atoms: _260  and  _261
REMARK  108  A    between atoms: _263  and  _265
REMARK  109  A    between atoms: _265  and  _266
REMARK  110  A    between atoms: _265  and  _268
REMARK  111  A    between atoms: _268  and  _269
REMARK  112  A    between atoms: _269  and  _270
REMARK  113  A    between atoms: _270  and  _271
REMARK  114  A    between atoms: _280  and  _282
REMARK  115  A    between atoms: _282  and  _283
REMARK  116  A    between atoms: _282  and  _285
REMARK  117  A    between atoms: _285  and  _286
REMARK  118  A    between atoms: _286  and  _287
REMARK  119  A    between atoms: _287  and  _288
REMARK  120  A    between atoms: _297  and  _299
REMARK  121  A    between atoms: _299  and  _300
REMARK  122  A    between atoms: _299  and  _302
REMARK  123  A    between atoms: _302  and  _303
REMARK  124  A    between atoms: _306  and  _308
REMARK  125  A    between atoms: _308  and  _309
REMARK  126  A    between atoms: _308  and  _311
REMARK  127  A    between atoms: _311  and  _312
REMARK  128  A    between atoms: _315  and  _317
REMARK  129  A    between atoms: _317  and  _318
REMARK  130  A    between atoms: _317  and  _320
REMARK  131  A    between atoms: _320  and  _321
REMARK  132  A    between atoms: _324  and  _326
REMARK  133  A    between atoms: _326  and  _327
REMARK  134  A    between atoms: _326  and  _329
REMARK  135  A    between atoms: _329  and  _330
REMARK  136  A    between atoms: _333  and  _335
REMARK  137  A    between atoms: _335  and  _336
REMARK  138  A    between atoms: _338  and  _340
REMARK  139  A    between atoms: _340  and  _341
REMARK  140  A    between atoms: _344  and  _346
REMARK  141  A    between atoms: _346  and  _347
REMARK  142  A    between atoms: _346  and  _349
REMARK  143  A    between atoms: _349  and  _350
REMARK  144  A    between atoms: _353  and  _355
REMARK  145  A    between atoms: _355  and  _356
REMARK  146  A    between atoms: _355  and  _358
REMARK  147  A    between atoms: _358  and  _359
REMARK  148  A    between atoms: _362  and  _364
REMARK  149  A    between atoms: _364  and  _365
REMARK  150  A    between atoms: _364  and  _367
REMARK  151  A    between atoms: _367  and  _368
REMARK  152  A    between atoms: _371  and  _373
REMARK  153  A    between atoms: _373  and  _374
REMARK  154  A    between atoms: _373  and  _376
REMARK  155  A    between atoms: _379  and  _381
REMARK  156  A    between atoms: _381  and  _382
REMARK  157  A    between atoms: _381  and  _384
REMARK  158  A    between atoms: _384  and  _385
REMARK  159  A    between atoms: _388  and  _390
REMARK  160  A    between atoms: _390  and  _391
REMARK  161  A    between atoms: _390  and  _393
REMARK  162  A    between atoms: _393  and  _394
REMARK  163  A    between atoms: _394  and  _395
REMARK  164  A    between atoms: _395  and  _396
REMARK  165  A    between atoms: _396  and  _397
REMARK  166  A    between atoms: _401  and  _403
REMARK  167  A    between atoms: _403  and  _404
REMARK  168  A    between atoms: _403  and  _406
REMARK  169  A    between atoms: _406  and  _407
REMARK  170  A    between atoms: _407  and  _408
REMARK  171  A    between atoms: _410  and  _412
REMARK  172  A    between atoms: _412  and  _413
REMARK  173  A    between atoms: _412  and  _415
REMARK  174  A    between atoms: _415  and  _416
REMARK  175  A    between atoms: _419  and  _421
REMARK  176  A    between atoms: _421  and  _422
REMARK  177  A    between atoms: _424  and  _426
REMARK  178  A    between atoms: _426  and  _427
REMARK  179  A    between atoms: _429  and  _431
REMARK  180  A    between atoms: _431  and  _432
REMARK  181  A    between atoms: _431  and  _434
REMARK  182  A    between atoms: _434  and  _435
REMARK  183  A    between atoms: _438  and  _440
REMARK  184  A    between atoms: _440  and  _441
REMARK  185  A    between atoms: _443  and  _445
REMARK  186  A    between atoms: _445  and  _446
REMARK  187  A    between atoms: _448  and  _450
REMARK  188  A    between atoms: _450  and  _451
REMARK  189  A    between atoms: _450  and  _453
REMARK  190  A    between atoms: _453  and  _454
REMARK  191  A    between atoms: _460  and  _462
REMARK  192  A    between atoms: _462  and  _463
REMARK  193  A    between atoms: _462  and  _465
REMARK  194  A    between atoms: _465  and  _466
REMARK  195  A    between atoms: _469  and  _471
REMARK  196  A    between atoms: _471  and  _472
REMARK  197  A    between atoms: _471  and  _474
REMARK  198  A    between atoms: _477  and  _479
REMARK  199  A    between atoms: _479  and  _480
REMARK  200  A    between atoms: _479  and  _482
REMARK  201  A    between atoms: _482  and  _483
REMARK  202  A    between atoms: _487  and  _488
REMARK  203  A    between atoms: _493  and  _495
REMARK  204  A    between atoms: _495  and  _496
REMARK  205  A    between atoms: _495  and  _498
REMARK  206  A    between atoms: _498  and  _499
REMARK  207  A    between atoms: _503  and  _504
REMARK  208  A    between atoms: _509  and  _511
REMARK  209  A    between atoms: _511  and  _512
REMARK  210  A    between atoms: _511  and  _514
REMARK  211  A    between atoms: _517  and  _519
REMARK  212  A    between atoms: _519  and  _520
REMARK  213  A    between atoms: _519  and  _522
REMARK  214  A    between atoms: _522  and  _523
REMARK  215  A    between atoms: _528  and  _530
REMARK  216  A    between atoms: _530  and  _531
REMARK  217  A    between atoms: _530  and  _533
REMARK  218  A    between atoms: _533  and  _534
REMARK  219  A    between atoms: _537  and  _539
REMARK  220  A    between atoms: _539  and  _540
REMARK  221  A    between atoms: _539  and  _542
REMARK  222  A    between atoms: _542  and  _543
REMARK  223  A    between atoms: _546  and  _548
REMARK  224  A    between atoms: _548  and  _549
REMARK  225  A    between atoms: _551  and  _553
REMARK  226  A    between atoms: _553  and  _554
REMARK  227  A    between atoms: _553  and  _556
REMARK  228  A    between atoms: _556  and  _557
REMARK  229  A    between atoms: _557  and  _558
REMARK  230  A    between atoms: _558  and  _559
REMARK  231  A    between atoms: _568  and  _570
REMARK  232  A    between atoms: _570  and  _571
REMARK  233  A    between atoms: _570  and  _573
REMARK  234  A    between atoms: _573  and  _574
REMARK                            x       y       z     vdW  Elec       q    Type
REMARK                         _______ _______ _______ _____ _____    ______ ____
ROOT
ATOM      1  C   GLY A   5      12.541 -14.989 -19.776  0.00  0.00    +0.243 C 
ATOM      2  N   ALA A   6      12.759 -14.145 -18.757  0.00  0.00    -0.297 N 
ATOM      3  H   ALA A   6      13.619 -13.560 -18.757  0.00  0.00    +0.150 HD
ATOM      4  O   GLY A   5      11.550 -15.737 -19.822  0.00  0.00    -0.273 OA
ENDROOT
BRANCH   2   5
ATOM      5  CA  ALA A   6      11.810 -14.027 -17.638  0.00  0.00    +0.149 C 
ATOM      6  CB  ALA A   6      12.590 -14.123 -16.331  0.00  0.00    +0.031 C 
BRANCH   5   7
ATOM      7  C   ALA A   6      11.088 -12.682 -17.673  0.00  0.00    +0.241 C 
ATOM      8  N   ASP A   7       9.757 -12.698 -17.630  0.00  0.00    -0.297 N 
ATOM      9  H   ASP A   7       9.262 -13.613 -17.638  0.00  0.00    +0.150 HD
ATOM     10  O   ALA A   6      11.773 -11.649 -17.682  0.00  0.00    -0.273 OA
BRANCH   8  11
ATOM     11  CA  ASP A   7       8.961 -11.449 -17.571  0.00  0.00    +0.160 C 
BRANCH  11  12
ATOM     12  C   ASP A   7       9.122 -10.782 -16.207  0.00  0.00    +0.241 C 
ATOM     13  N   ASP A   8       9.260 -11.651 -15.203  0.00  0.00    -0.297 N 
ATOM     14  H   ASP A   8       9.423 -12.649 -15.446  0.00  0.00    +0.150 HD
ATOM     15  O   ASP A   7       9.116  -9.541 -16.087  0.00  0.00    -0.273 OA
BRANCH  13  16
ATOM     16  CA  ASP A   8       9.198 -11.299 -13.788  0.00  0.00    +0.160 C 
BRANCH  16  17
ATOM     17  C   ASP A   8      10.493 -11.667 -13.080  0.00  0.00    +0.241 C 
ATOM     18  N   THR A   9      10.697 -11.035 -11.928  0.00  0.00    -0.295 N 
ATOM     19  H   THR A   9      10.035 -10.282 -11.649  0.00  0.00    +0.150 HD
ATOM     20  O   ASP A   8      11.244 -12.529 -13.537  0.00  0.00    -0.273 OA
BRANCH  18  21
ATOM     21  CA  THR A   9      11.810 -11.352 -11.037  0.00  0.00    +0.176 C 
BRANCH  21  22
ATOM     22  C   THR A   9      11.295 -12.291  -9.939  0.00  0.00    +0.243 C 
ATOM     23  O   THR A   9      10.265 -12.013  -9.307  0.00  0.00    -0.273 OA
ATOM     24  N   VAL A  10      11.966 -13.418  -9.755  0.00  0.00    -0.298 N 
ATOM     25  H   VAL A  10      12.807 -13.616 -10.333  0.00  0.00    +0.150 HD
BRANCH  24  26
ATOM     26  CA  VAL A  10      11.533 -14.392  -8.741  0.00  0.00    +0.137 C 
BRANCH  26  27
ATOM     27  CB  VAL A  10      10.906 -15.677  -9.374  0.00  0.00    +0.026 C 
ATOM     28  CG2 VAL A  10      10.065 -16.462  -8.316  0.00  0.00    +0.002 C 
ATOM     29  CG1 VAL A  10      10.118 -15.361 -10.657  0.00  0.00    +0.002 C 
ENDBRANCH  26  27
BRANCH  26  30
ATOM     30  C   VAL A  10      12.728 -14.836  -7.946  0.00  0.00    +0.227 C 
ATOM     31  O   VAL A  10      13.753 -15.255  -8.505  0.00  0.00    -0.286 OA
ENDBRANCH  26  30
ENDBRANCH  24  26
ENDBRANCH  21  22
BRANCH  21  32
ATOM     32  CB  THR A   9      12.390 -10.040 -10.427  0.00  0.00    +0.137 C 
ATOM     33  CG2 THR A   9      13.415 -10.308  -9.326  0.00  0.00    +0.034 C 
BRANCH  32  34
ATOM     34  OG1 THR A   9      13.011  -9.287 -11.491  0.00  0.00    -0.382 OA
ATOM     35  HG1 THR A   9      12.334  -9.073 -12.181  0.00  0.00    +0.210 HD
ENDBRANCH  32  34
ENDBRANCH  21  32
ENDBRANCH  18  21
ENDBRANCH  16  17
BRANCH  16  36
ATOM     36  CB  ASP A   8       8.094 -12.165 -13.132  0.00  0.00    +0.143 C 
BRANCH  36  37
ATOM     37  CG  ASP A   8       6.795 -12.174 -13.934  0.00  0.00    +0.367 C 
ATOM     38  OD2 ASP A   8       6.256 -11.090 -14.239  0.00  0.00    -0.246 OA
ATOM     39  OD1 ASP A   8       6.316 -13.277 -14.254  0.00  0.00    -0.246 OA
ENDBRANCH  36  37
ENDBRANCH  16  36
ENDBRANCH  13  16
ENDBRANCH  11  12
BRANCH  11  40
ATOM     40  CB  ASP A   7       7.475 -11.725 -17.767  0.00  0.00    +0.143 C 
BRANCH  40  41
ATOM     41  CG  ASP A   7       7.146 -12.361 -19.097  0.00  0.00    +0.367 C 
ATOM     42  OD2 ASP A   7       6.114 -13.053 -19.089  0.00  0.00    -0.246 OA
ATOM     43  OD1 ASP A   7       7.867 -12.210 -20.115  0.00  0.00    -0.246 OA
ENDBRANCH  40  41
ENDBRANCH  11  40
ENDBRANCH   8  11
ENDBRANCH   5   7
ENDBRANCH   2   5
BRANCH   1  44
ATOM     44  CA  GLY A   5      13.543 -15.003 -20.913  0.00  0.00    +0.176 C 
BRANCH  44  46
ATOM     45  C   THR A   4      14.723 -12.841 -20.959  0.00  0.00    +0.243 C 
ATOM     46  N   GLY A   5      14.710 -14.152 -20.647  0.00  0.00    -0.295 N 
ATOM     47  H   GLY A   5      15.552 -14.574 -20.205  0.00  0.00    +0.150 HD
ATOM     48  O   THR A   4      13.806 -12.280 -21.550  0.00  0.00    -0.273 OA
BRANCH  45  49
ATOM     49  CA  THR A   4      15.976 -12.019 -20.581  0.00  0.00    +0.176 C 
BRANCH  49  52
ATOM     50  C   ASP A   3      16.306 -12.873 -18.326  0.00  0.00    +0.241 C 
ATOM     51  O   ASP A   3      15.172 -12.480 -17.955  0.00  0.00    -0.273 OA
ATOM     52  N   THR A   4      16.756 -12.709 -19.574  0.00  0.00    -0.295 N 
ATOM     53  H   THR A   4      17.691 -13.087 -19.829  0.00  0.00    +0.150 HD
BRANCH  50  54
ATOM     54  CA  ASP A   3      17.281 -13.589 -17.378  0.00  0.00    +0.160 C 
BRANCH  54  56
ATOM     55  C   LEU A   2      19.422 -12.730 -16.563  0.00  0.00    +0.241 C 
ATOM     56  N   ASP A   3      18.089 -12.662 -16.571  0.00  0.00    -0.297 N 
ATOM     57  H   ASP A   3      17.612 -11.939 -15.995  0.00  0.00    +0.150 HD
ATOM     58  O   LEU A   2      20.078 -13.396 -17.372  0.00  0.00    -0.273 OA
BRANCH  55  59
ATOM     59  CA  LEU A   2      20.116 -11.994 -15.437  0.00  0.00    +0.149 C 
BRANCH  59  62
ATOM     60  C   LEU A   1      19.944 -13.713 -13.684  0.00  0.00    +0.238 C 
ATOM     61  O   LEU A   1      18.730 -13.468 -13.513  0.00  0.00    -0.274 OA
ATOM     62  N   LEU A   2      20.699 -13.018 -14.543  0.00  0.00    -0.297 N 
ATOM     63  H   LEU A   2      21.722 -13.203 -14.583  0.00  0.00    +0.150 HD
BRANCH  60  64
ATOM     64  CA  LEU A   1      20.623 -14.837 -12.910  0.00  0.00    +0.145 C 
BRANCH  64  65
ATOM     65  N   LEU A   1      20.399 -14.685 -11.493  0.00  0.00    -0.238 NA
ATOM     66  H   LEU A   1      19.520 -15.068 -11.090  0.00  0.00    +0.142 HD
ENDBRANCH  64  65
BRANCH  64  67
ATOM     67  CB  LEU A   1      20.055 -16.205 -13.302  0.00  0.00    +0.026 C 
BRANCH  67  68
ATOM     68  CG  LEU A   1      20.153 -16.737 -14.718  0.00  0.00    +0.002 C 
ATOM     69  CD2 LEU A   1      19.212 -17.972 -14.755  0.00  0.00    +0.000 C 
ATOM     70  CD1 LEU A   1      21.588 -17.123 -15.035  0.00  0.00    +0.000 C 
ENDBRANCH  67  68
ENDBRANCH  64  67
ENDBRANCH  60  64
ENDBRANCH  59  62
BRANCH  59  71
ATOM     71  CB  LEU A   2      21.203 -11.084 -16.005  0.00  0.00    +0.029 C 
BRANCH  71  72
ATOM     72  CG  LEU A   2      22.058 -10.368 -14.934  0.00  0.00    +0.002 C 
ATOM     73  CD2 LEU A   2      21.196  -9.543 -14.006  0.00  0.00    +0.000 C 
ATOM     74  CD1 LEU A   2      23.066  -9.485 -15.663  0.00  0.00    +0.000 C 
ENDBRANCH  71  72
ENDBRANCH  59  71
ENDBRANCH  55  59
ENDBRANCH  54  56
BRANCH  54  75
ATOM     75  CB  ASP A   3      16.541 -14.530 -16.442  0.00  0.00    +0.143 C 
BRANCH  75  76
ATOM     76  CG  ASP A   3      15.819 -15.631 -17.181  0.00  0.00    +0.367 C 
ATOM     77  OD2 ASP A   3      15.108 -16.389 -16.479  0.00  0.00    -0.246 OA
ATOM     78  OD1 ASP A   3      16.014 -15.702 -18.411  0.00  0.00    -0.246 OA
ENDBRANCH  75  76
ENDBRANCH  54  75
ENDBRANCH  50  54
ENDBRANCH  49  52
BRANCH  49  79
ATOM     79  CB  THR A   4      16.780 -11.681 -21.849  0.00  0.00    +0.137 C 
ATOM     80  CG2 THR A   4      17.928 -10.772 -21.512  0.00  0.00    +0.034 C 
BRANCH  79  81
ATOM     81  OG1 THR A   4      17.299 -12.880 -22.444  0.00  0.00    -0.382 OA
ATOM     82  HG1 THR A   4      16.548 -13.478 -22.686  0.00  0.00    +0.210 HD
ENDBRANCH  79  81
ENDBRANCH  49  79
ENDBRANCH  45  49
ENDBRANCH  44  46
ENDBRANCH   1  44
TORSDOF 35
REMARK  Name = ../refined-set-2016/2o4s/2o4s_pocket.pdb
REMARK  234 active torsions:
REMARK  status: ('A' for Active; 'I' for Inactive)
REMARK    1  A    between atoms: _1  and  _3
REMARK    2  A    between atoms: _3  and  _4
REMARK    3  A    between atoms: _3  and  _6
REMARK    4  A    between atoms: _6  and  _7
REMARK    5  A    between atoms: _7  and  _8
REMARK    6  A    between atoms: _8  and  _9
REMARK    7  A    between atoms: _18  and  _20
REMARK    8  A    between atoms: _20  and  _21
REMARK    9  A    between atoms: _20  and  _23
REMARK   10  A    between atoms: _23  and  _24
REMARK   11  A    between atoms: _27  and  _29
REMARK   12  A    between atoms: _29  and  _30
REMARK   13  A    between atoms: _29  and  _32
REMARK   14  A    between atoms: _32  and  _33
REMARK   15  A    between atoms: _36  and  _38
REMARK   16  A    between atoms: _38  and  _39
REMARK   17  A    between atoms: _38  and  _41
REMARK   18  A    between atoms: _41  and  _42
REMARK   19  A    between atoms: _45  and  _47
REMARK   20  A    between atoms: _47  and  _48
REMARK   21  A    between atoms: _47  and  _50
REMARK   22  A    between atoms: _50  and  _51
REMARK   23  A    between atoms: _54  and  _56
REMARK   24  A    between atoms: _56  and  _57
REMARK   25  A    between atoms: _59  and  _61
REMARK   26  A    between atoms: _61  and  _62
REMARK   27  A    between atoms: _65  and  _67
REMARK   28  A    between atoms: _67  and  _68
REMARK   29  A    between atoms: _67  and  _70
REMARK   30  A    between atoms: _70  and  _71
REMARK   31  A    between atoms: _74  and  _76
REMARK   32  A    between atoms: _76  and  _77
REMARK   33  A    between atoms: _76  and  _79
REMARK   34  A    between atoms: _79  and  _80
REMARK   35  A    between atoms: _83  and  _85
REMARK   36  A    between atoms: _85  and  _86
REMARK   37  A    between atoms: _85  and  _88
REMARK   38  A    between atoms: _88  and  _89
REMARK   39  A    between atoms: _92  and  _94
REMARK   40  A    between atoms: _94  and  _95
REMARK   41  A    between atoms: _94  and  _97
REMARK   42  A    between atoms: _100  and  _102
REMARK   43  A    between atoms: _102  and  _103
REMARK   44  A    between atoms: _102  and  _105
REMARK   45  A    between atoms: _105  and  _106
REMARK   46  A    between atoms: _106  and  _107
REMARK   47  A    between atoms: _107  and  _108
REMARK   48  A    between atoms: _108  and  _109
REMARK   49  A    between atoms: _113  and  _115
REMARK   50  A    between atoms: _115  and  _116
REMARK   51  A    between atoms: _115  and  _118
REMARK   52  A    between atoms: _118  and  _119
REMARK   53  A    between atoms: _119  and  _120
REMARK   54  A    between atoms: _122  and  _124
REMARK   55  A    between atoms: _124  and  _125
REMARK   56  A    between atoms: _124  and  _127
REMARK   57  A    between atoms: _127  and  _128
REMARK   58  A    between atoms: _131  and  _133
REMARK   59  A    between atoms: _133  and  _134
REMARK   60  A    between atoms: _136  and  _138
REMARK   61  A    between atoms: _138  and  _139
REMARK   62  A    between atoms: _141  and  _143
REMARK   63  A    between atoms: _143  and  _144
REMARK   64  A    between atoms: _143  and  _146
REMARK   65  A    between atoms: _146  and  _147
REMARK   66  A    between atoms: _150  and  _152
REMARK   67  A    between atoms: _152  and  _153
REMARK   68  A    between atoms: _155  and  _157
REMARK   69  A    between atoms: _157  and  _158
REMARK   70  A    between atoms: _160  and  _162
REMARK   71  A    between atoms: _162  and  _163
REMARK   72  A    between atoms: _162  and  _165
REMARK   73  A    between atoms: _165  and  _166
REMARK   74  A    between atoms: _172  and  _174
REMARK   75  A    between atoms: _174  and  _175
REMARK   76  A    between atoms: _174  and  _177
REMARK   77  A    between atoms: _177  and  _178
REMARK   78  A    between atoms: _181  and  _183
REMARK   79  A    between atoms: _183  and  _184
REMARK   80  A    between atoms: _183  and  _186
REMARK   81  A    between atoms: _189  and  _191
REMARK   82  A    between atoms: _191  and  _192
REMARK   83  A    between atoms: _191  and  _194
REMARK   84  A    between atoms: _194  and  _195
REMARK   85  A    between atoms: _199  and  _200
REMARK   86  A    between atoms: _205  and  _207
REMARK   87  A    between atoms: _207  and  _208
REMARK   88  A    between atoms: _207  and  _210
REMARK   89  A    between atoms: _210  and  _211
REMARK   90  A    between atoms: _215  and  _216
REMARK   91  A    between atoms: _221  and  _223
REMARK   92  A    between atoms: _223  and  _224
REMARK   93  A    between atoms: _223  and  _226
REMARK   94  A    between atoms: _229  and  _231
REMARK   95  A    between atoms: _231  and  _232
REMARK   96  A    between atoms: _231  and  _234
REMARK   97  A    between atoms: _234  and  _235
REMARK   98  A    between atoms: _240  and  _242
REMARK   99  A    between atoms: _242  and  _243
REMARK  100  A    between atoms: _242  and  _245
REMARK  101  A    between atoms: _245  and  _246
REMARK  102  A    between atoms: _249  and  _251
REMARK  103  A    between atoms: _251  and  _252
REMARK  104  A    between atoms: _251  and  _254
REMARK  105  A    between atoms: _254  and  _255
REMARK  106  A    between atoms: _258  and  _260
REMARK  107  A    between atoms: _260  and  _261
REMARK  108  A    between atoms: _263  and  _265
REMARK  109  A    between atoms: _265  and  _266
REMARK  110  A    between atoms: _265  and  _268
REMARK  111  A    between atoms: _268  and  _269
REMARK  112  A    between atoms: _269  and  _270
REMARK  113  A    between atoms: _270  and  _271
REMARK  114  A    between atoms: _280  and  _282
REMARK  115  A    between atoms: _282  and  _283
REMARK  116  A    between atoms: _282  and  _285
REMARK  117  A    between atoms: _285  and  _286
REMARK  118  A    between atoms: _286  and  _287
REMARK  119  A    between atoms: _287  and  _288
REMARK  120  A    between atoms: _297  and  _299
REMARK  121  A    between atoms: _299  and  _300
REMARK  122  A    between atoms: _299  and  _302
REMARK  123  A    between atoms: _302  and  _303
REMARK  124  A    between atoms: _306  and  _308
REMARK  125  A    between atoms: _308  and  _309
REMARK  126  A    between atoms: _308  and  _311
REMARK  127  A    between atoms: _311  and  _312
REMARK  128  A    between atoms: _315  and  _317
REMARK  129  A    between atoms: _317  and  _318
REMARK  130  A    between atoms: _317  and  _320
REMARK  131  A    between atoms: _320  and  _321
REMARK  132  A    between atoms: _324  and  _326
REMARK  133  A    between atoms: _326  and  _327
REMARK  134  A    between atoms: _326  and  _329
REMARK  135  A    between atoms: _329  and  _330
REMARK  136  A    between atoms: _333  and  _335
REMARK  137  A    between atoms: _335  and  _336
REMARK  138  A    between atoms: _338  and  _340
REMARK  139  A    between atoms: _340  and  _341
REMARK  140  A    between atoms: _344  and  _346
REMARK  141  A    between atoms: _346  and  _347
REMARK  142  A    between atoms: _346  and  _349
REMARK  143  A    between atoms: _349  and  _350
REMARK  144  A    between atoms: _353  and  _355
REMARK  145  A    between atoms: _355  and  _356
REMARK  146  A    between atoms: _355  and  _358
REMARK  147  A    between atoms: _358  and  _359
REMARK  148  A    between atoms: _362  and  _364
REMARK  149  A    between atoms: _364  and  _365
REMARK  150  A    between atoms: _364  and  _367
REMARK  151  A    between atoms: _367  and  _368
REMARK  152  A    between atoms: _371  and  _373
REMARK  153  A    between atoms: _373  and  _374
REMARK  154  A    between atoms: _373  and  _376
REMARK  155  A    between atoms: _379  and  _381
REMARK  156  A    between atoms: _381  and  _382
REMARK  157  A    between atoms: _381  and  _384
REMARK  158  A    between atoms: _384  and  _385
REMARK  159  A    between atoms: _388  and  _390
REMARK  160  A    between atoms: _390  and  _391
REMARK  161  A    between atoms: _390  and  _393
REMARK  162  A    between atoms: _393  and  _394
REMARK  163  A    between atoms: _394  and  _395
REMARK  164  A    between atoms: _395  and  _396
REMARK  165  A    between atoms: _396  and  _397
REMARK  166  A    between atoms: _401  and  _403
REMARK  167  A    between atoms: _403  and  _404
REMARK  168  A    between atoms: _403  and  _406
REMARK  169  A    between atoms: _406  and  _407
REMARK  170  A    between atoms: _407  and  _408
REMARK  171  A    between atoms: _410  and  _412
REMARK  172  A    between atoms: _412  and  _413
REMARK  173  A    between atoms: _412  and  _415
REMARK  174  A    between atoms: _415  and  _416
REMARK  175  A    between atoms: _419  and  _421
REMARK  176  A    between atoms: _421  and  _422
REMARK  177  A    between atoms: _424  and  _426
REMARK  178  A    between atoms: _426  and  _427
REMARK  179  A    between atoms: _429  and  _431
REMARK  180  A    between atoms: _431  and  _432
REMARK  181  A    between atoms: _431  and  _434
REMARK  182  A    between atoms: _434  and  _435
REMARK  183  A    between atoms: _438  and  _440
REMARK  184  A    between atoms: _440  and  _441
REMARK  185  A    between atoms: _443  and  _445
REMARK  186  A    between atoms: _445  and  _446
REMARK  187  A    between atoms: _448  and  _450
REMARK  188  A    between atoms: _450  and  _451
REMARK  189  A    between atoms: _450  and  _453
REMARK  190  A    between atoms: _453  and  _454
REMARK  191  A    between atoms: _460  and  _462
REMARK  192  A    between atoms: _462  and  _463
REMARK  193  A    between atoms: _462  and  _465
REMARK  194  A    between atoms: _465  and  _466
REMARK  195  A    between atoms: _469  and  _471
REMARK  196  A    between atoms: _471  and  _472
REMARK  197  A    between atoms: _471  and  _474
REMARK  198  A    between atoms: _477  and  _479
REMARK  199  A    between atoms: _479  and  _480
REMARK  200  A    between atoms: _479  and  _482
REMARK  201  A    between atoms: _482  and  _483
REMARK  202  A    between atoms: _487  and  _488
REMARK  203  A    between atoms: _493  and  _495
REMARK  204  A    between atoms: _495  and  _496
REMARK  205  A    between atoms: _495  and  _498
REMARK  206  A    between atoms: _498  and  _499
REMARK  207  A    between atoms: _503  and  _504
REMARK  208  A    between atoms: _509  and  _511
REMARK  209  A    between atoms: _511  and  _512
REMARK  210  A    between atoms: _511  and  _514
REMARK  211  A    between atoms: _517  and  _519
REMARK  212  A    between atoms: _519  and  _520
REMARK  213  A    between atoms: _519  and  _522
REMARK  214  A    between atoms: _522  and  _523
REMARK  215  A    between atoms: _528  and  _530
REMARK  216  A    between atoms: _530  and  _531
REMARK  217  A    between atoms: _530  and  _533
REMARK  218  A    between atoms: _533  and  _534
REMARK  219  A    between atoms: _537  and  _539
REMARK  220  A    between atoms: _539  and  _540
REMARK  221  A    between atoms: _539  and  _542
REMARK  222  A    between atoms: _542  and  _543
REMARK  223  A    between atoms: _546  and  _548
REMARK  224  A    between atoms: _548  and  _549
REMARK  225  A    between atoms: _551  and  _553
REMARK  226  A    between atoms: _553  and  _554
REMARK  227  A    between atoms: _553  and  _556
REMARK  228  A    between atoms: _556  and  _557
REMARK  229  A    between atoms: _557  and  _558
REMARK  230  A    between atoms: _558  and  _559
REMARK  231  A    between atoms: _568  and  _570
REMARK  232  A    between atoms: _570  and  _571
REMARK  233  A    between atoms: _570  and  _573
REMARK  234  A    between atoms: _573  and  _574
REMARK                            x       y       z     vdW  Elec       q    Type
REMARK                         _______ _______ _______ _____ _____    ______ ____
ROOT
ATOM      1  C   GLY A   5       7.031 -23.831 -17.766  0.00  0.00    +0.243 C 
ATOM      2  O   GLY A   5       6.193 -24.741 -17.619  0.00  0.00    -0.273 OA
ATOM      3  N   ILE A   6       8.313 -24.016 -18.086  0.00  0.00    -0.297 N 
ATOM      4  H   ILE A   6       8.933 -23.190 -18.203  0.00  0.00    +0.150 HD
ENDROOT
BRANCH   3   5
ATOM      5  CA  ILE A   6       8.863 -25.358 -18.275  0.00  0.00    +0.149 C 
BRANCH   5   6
ATOM      6  C   ILE A   6       8.721 -26.134 -16.973  0.00  0.00    +0.241 C 
ATOM      7  O   ILE A   6       9.142 -25.678 -15.926  0.00  0.00    -0.273 OA
ATOM      8  N   GLY A   7       8.067 -27.285 -17.059  0.00  0.00    -0.295 N 
ATOM      9  H   GLY A   7       7.699 -27.598 -17.980  0.00  0.00    +0.150 HD
BRANCH   8  10
ATOM     10  CA  GLY A   7       7.855 -28.122 -15.873  0.00  0.00    +0.176 C 
BRANCH  10  11
ATOM     11  C   GLY A   7       6.645 -27.783 -15.022  0.00  0.00    +0.243 C 
ATOM     12  O   GLY A   7       6.419 -28.441 -14.018  0.00  0.00    -0.273 OA
ATOM     13  N   GLY A   8       5.890 -26.760 -15.411  0.00  0.00    -0.295 N 
ATOM     14  H   GLY A   8       6.224 -26.159 -16.191  0.00  0.00    +0.150 HD
BRANCH  13  15
ATOM     15  CA  GLY A   8       4.602 -26.448 -14.779  0.00  0.00    +0.176 C 
BRANCH  15  16
ATOM     16  C   GLY A   8       4.641 -25.184 -13.945  0.00  0.00    +0.243 C 
ATOM     17  N   PHE A   9       3.771 -25.152 -12.937  0.00  0.00    -0.297 N 
ATOM     18  H   PHE A   9       3.292 -26.036 -12.672  0.00  0.00    +0.150 HD
ATOM     19  O   GLY A   8       5.456 -24.287 -14.186  0.00  0.00    -0.273 OA
BRANCH  17  20
ATOM     20  CA  PHE A   9       3.455 -23.943 -12.186  0.00  0.00    +0.153 C 
BRANCH  20  21
ATOM     21  C   PHE A   9       3.890 -23.998 -10.741  0.00  0.00    +0.241 C 
ATOM     22  O   PHE A   9       3.830 -25.055 -10.113  0.00  0.00    -0.273 OA
ATOM     23  N   ILE A  10       4.309 -22.841 -10.232  0.00  0.00    -0.298 N 
ATOM     24  H   ILE A  10       4.458 -22.032 -10.868  0.00  0.00    +0.150 HD
BRANCH  23  25
ATOM     25  CA  ILE A  10       4.565 -22.680  -8.802  0.00  0.00    +0.137 C 
BRANCH  25  26
ATOM     26  C   ILE A  10       3.771 -21.486  -8.283  0.00  0.00    +0.227 C 
ATOM     27  O   ILE A  10       3.449 -20.549  -9.026  0.00  0.00    -0.286 OA
ENDBRANCH  25  26
BRANCH  25  28
ATOM     28  CB  ILE A  10       6.067 -22.468  -8.459  0.00  0.00    +0.026 C 
ATOM     29  CG2 ILE A  10       6.920 -23.690  -8.867  0.00  0.00    +0.002 C 
BRANCH  28  30
ATOM     30  CG1 ILE A  10       6.630 -21.177  -9.085  0.00  0.00    +0.002 C 
ATOM     31  CD1 ILE A  10       7.990 -20.752  -8.521  0.00  0.00    +0.000 C 
ENDBRANCH  28  30
ENDBRANCH  25  28
ENDBRANCH  23  25
ENDBRANCH  20  21
BRANCH  20  32
ATOM     32  CB  PHE A   9       1.935 -23.675 -12.212  0.00  0.00    +0.055 C 
BRANCH  32  33
ATOM     33  CG  PHE A   9       1.433 -23.217 -13.551  0.00  0.00    -0.020 A 
ATOM     34  CD2 PHE A   9       1.058 -21.889 -13.756  0.00  0.00    -0.004 A 
ATOM     35  CE2 PHE A   9       0.646 -21.456 -15.012  0.00  0.00    -0.000 A 
ATOM     36  CZ  PHE A   9       0.599 -22.362 -16.075  0.00  0.00    -0.000 A 
ATOM     37  CE1 PHE A   9       0.970 -23.677 -15.891  0.00  0.00    -0.000 A 
ATOM     38  CD1 PHE A   9       1.390 -24.107 -14.622  0.00  0.00    -0.004 A 
ENDBRANCH  32  33
ENDBRANCH  20  32
ENDBRANCH  17  20
ENDBRANCH  15  16
ENDBRANCH  13  15
ENDBRANCH  10  11
ENDBRANCH   8  10
ENDBRANCH   5   6
BRANCH   5  39
ATOM     39  CB  ILE A   6      10.321 -25.353 -18.831  0.00  0.00    +0.027 C 
ATOM     40  CG2 ILE A   6      10.946 -26.752 -18.682  0.00  0.00    +0.002 C 
BRANCH  39  41
ATOM     41  CG1 ILE A   6      10.286 -24.940 -20.315  0.00  0.00    +0.002 C 
ATOM     42  CD1 ILE A   6      11.611 -24.771 -20.965  0.00  0.00    +0.000 C 
ENDBRANCH  39  41
ENDBRANCH   5  39
ENDBRANCH   3   5
BRANCH   1  43
ATOM     43  CA  GLY A   5       6.629 -22.402 -17.575  0.00  0.00    +0.176 C 
BRANCH  43  45
ATOM     44  C   GLY A   4       5.038 -21.236 -16.210  0.00  0.00    +0.243 C 
ATOM     45  N   GLY A   5       5.777 -22.310 -16.396  0.00  0.00    -0.295 N 
ATOM     46  H   GLY A   5       5.753 -23.088 -15.706  0.00  0.00    +0.150 HD
ATOM     47  O   GLY A   4       5.080 -20.253 -16.957  0.00  0.00    -0.273 OA
BRANCH  44  48
ATOM     48  CA  GLY A   4       4.100 -21.317 -15.035  0.00  0.00    +0.176 C 
BRANCH  48  51
ATOM     49  C   ILE A   3       3.925 -19.911 -13.103  0.00  0.00    +0.241 C 
ATOM     50  O   ILE A   3       4.187 -20.854 -12.349  0.00  0.00    -0.273 OA
ATOM     51  N   GLY A   4       3.838 -20.037 -14.423  0.00  0.00    -0.295 N 
ATOM     52  H   GLY A   4       3.583 -19.218 -15.011  0.00  0.00    +0.150 HD
BRANCH  49  53
ATOM     53  CA  ILE A   3       3.635 -18.514 -12.555  0.00  0.00    +0.149 C 
BRANCH  53  55
ATOM     54  C   MET A   2       1.696 -18.107 -11.185  0.00  0.00    +0.241 C 
ATOM     55  N   ILE A   3       2.900 -18.655 -11.303  0.00  0.00    -0.297 N 
ATOM     56  H   ILE A   3       3.316 -19.181 -10.508  0.00  0.00    +0.150 HD
ATOM     57  O   MET A   2       1.216 -17.325 -12.031  0.00  0.00    -0.273 OA
BRANCH  54  58
ATOM     58  CA  MET A   2       0.896 -18.474  -9.972  0.00  0.00    +0.149 C 
BRANCH  58  61
ATOM     59  C   LYS A   1       0.823 -16.779  -8.214  0.00  0.00    +0.238 C 
ATOM     60  O   LYS A   1       1.612 -17.395  -7.498  0.00  0.00    -0.274 OA
ATOM     61  N   MET A   2       0.343 -17.256  -9.362  0.00  0.00    -0.297 N 
ATOM     62  H   MET A   2      -0.437 -16.757  -9.835  0.00  0.00    +0.150 HD
BRANCH  59  63
ATOM     63  CA  LYS A   1       0.337 -15.405  -7.803  0.00  0.00    +0.145 C 
BRANCH  63  64
ATOM     64  N   LYS A   1       0.303 -15.364  -6.347  0.00  0.00    -0.238 NA
ATOM     65  H   LYS A   1       0.981 -15.943  -5.813  0.00  0.00    +0.142 HD
ENDBRANCH  63  64
BRANCH  63  66
ATOM     66  CB  LYS A   1       1.340 -14.369  -8.316  0.00  0.00    +0.026 C 
BRANCH  66  67
ATOM     67  CG  LYS A   1       1.363 -14.120  -9.806  0.00  0.00    -0.000 C 
BRANCH  67  68
ATOM     68  CD  LYS A   1       2.430 -13.079 -10.080  0.00  0.00    -0.024 C 
BRANCH  68  69
ATOM     69  CE  LYS A   1       2.661 -12.805 -11.576  0.00  0.00    -0.086 C 
BRANCH  69  70
ATOM     70  NZ  LYS A   1       1.464 -12.179 -12.214  0.00  0.00    +0.380 N 
ATOM     71  HZ1 LYS A   1       1.255 -11.275 -11.744  0.00  0.00    -0.089 HD
ATOM     72  HZ2 LYS A   1       0.649 -12.818 -12.120  0.00  0.00    -0.089 HD
ATOM     73  HZ3 LYS A   1       1.658 -12.010 -13.222  0.00  0.00    -0.089 HD
ENDBRANCH  69  70
ENDBRANCH  68  69
ENDBRANCH  67  68
ENDBRANCH  66  67
ENDBRANCH  63  66
ENDBRANCH  59  63
ENDBRANCH  58  61
BRANCH  58  74
ATOM     74  CB  MET A   2      -0.242 -19.411 -10.393  0.00  0.00    +0.041 C 
BRANCH  74  75
ATOM     75  CG  MET A   2      -1.084 -19.880  -9.228  0.00  0.00    +0.060 C 
BRANCH  75  76
ATOM     76  SD  MET A   2      -0.219 -21.001  -8.074  0.00  0.00    -0.139 S 
ATOM     77  CE  MET A   2       0.110 -22.388  -9.106  0.00  0.00    +0.069 C 
ENDBRANCH  75  76
ENDBRANCH  74  75
ENDBRANCH  58  74
ENDBRANCH  54  58
ENDBRANCH  53  55
BRANCH  53  78
ATOM     78  CB  ILE A   3       4.931 -17.675 -12.421  0.00  0.00    +0.027 C 
ATOM     79  CG2 ILE A   3       4.591 -16.175 -12.193  0.00  0.00    +0.002 C 
BRANCH  78  80
ATOM     80  CG1 ILE A   3       5.851 -18.278 -11.342  0.00  0.00    +0.002 C 
ATOM     81  CD1 ILE A   3       7.157 -17.562 -11.140  0.00  0.00    +0.000 C 
ENDBRANCH  78  80
ENDBRANCH  53  78
ENDBRANCH  49  53
ENDBRANCH  48  51
ENDBRANCH  44  48
ENDBRANCH  43  45
ENDBRANCH   1  43
TORSDOF 36
REMARK  Name = ../refined-set-2016/2o4s/2o4s_pocket.pdb
REMARK  234 active torsions:
REMARK  status: ('A' for Active; 'I' for Inactive)
REMARK    1  A    between atoms: _1  and  _3
REMARK    2  A    between atoms: _3  and  _4
REMARK    3  A    between atoms: _3  and  _6
REMARK    4  A    between atoms: _6  and  _7
REMARK    5  A    between atoms: _7  and  _8
REMARK    6  A    between atoms: _8  and  _9
REMARK    7  A    between atoms: _18  and  _20
REMARK    8  A    between atoms: _20  and  _21
REMARK    9  A    between atoms: _20  and  _23
REMARK   10  A    between atoms: _23  and  _24
REMARK   11  A    between atoms: _27  and  _29
REMARK   12  A    between atoms: _29  and  _30
REMARK   13  A    between atoms: _29  and  _32
REMARK   14  A    between atoms: _32  and  _33
REMARK   15  A    between atoms: _36  and  _38
REMARK   16  A    between atoms: _38  and  _39
REMARK   17  A    between atoms: _38  and  _41
REMARK   18  A    between atoms: _41  and  _42
REMARK   19  A    between atoms: _45  and  _47
REMARK   20  A    between atoms: _47  and  _48
REMARK   21  A    between atoms: _47  and  _50
REMARK   22  A    between atoms: _50  and  _51
REMARK   23  A    between atoms: _54  and  _56
REMARK   24  A    between atoms: _56  and  _57
REMARK   25  A    between atoms: _59  and  _61
REMARK   26  A    between atoms: _61  and  _62
REMARK   27  A    between atoms: _65  and  _67
REMARK   28  A    between atoms: _67  and  _68
REMARK   29  A    between atoms: _67  and  _70
REMARK   30  A    between atoms: _70  and  _71
REMARK   31  A    between atoms: _74  and  _76
REMARK   32  A    between atoms: _76  and  _77
REMARK   33  A    between atoms: _76  and  _79
REMARK   34  A    between atoms: _79  and  _80
REMARK   35  A    between atoms: _83  and  _85
REMARK   36  A    between atoms: _85  and  _86
REMARK   37  A    between atoms: _85  and  _88
REMARK   38  A    between atoms: _88  and  _89
REMARK   39  A    between atoms: _92  and  _94
REMARK   40  A    between atoms: _94  and  _95
REMARK   41  A    between atoms: _94  and  _97
REMARK   42  A    between atoms: _100  and  _102
REMARK   43  A    between atoms: _102  and  _103
REMARK   44  A    between atoms: _102  and  _105
REMARK   45  A    between atoms: _105  and  _106
REMARK   46  A    between atoms: _106  and  _107
REMARK   47  A    between atoms: _107  and  _108
REMARK   48  A    between atoms: _108  and  _109
REMARK   49  A    between atoms: _113  and  _115
REMARK   50  A    between atoms: _115  and  _116
REMARK   51  A    between atoms: _115  and  _118
REMARK   52  A    between atoms: _118  and  _119
REMARK   53  A    between atoms: _119  and  _120
REMARK   54  A    between atoms: _122  and  _124
REMARK   55  A    between atoms: _124  and  _125
REMARK   56  A    between atoms: _124  and  _127
REMARK   57  A    between atoms: _127  and  _128
REMARK   58  A    between atoms: _131  and  _133
REMARK   59  A    between atoms: _133  and  _134
REMARK   60  A    between atoms: _136  and  _138
REMARK   61  A    between atoms: _138  and  _139
REMARK   62  A    between atoms: _141  and  _143
REMARK   63  A    between atoms: _143  and  _144
REMARK   64  A    between atoms: _143  and  _146
REMARK   65  A    between atoms: _146  and  _147
REMARK   66  A    between atoms: _150  and  _152
REMARK   67  A    between atoms: _152  and  _153
REMARK   68  A    between atoms: _155  and  _157
REMARK   69  A    between atoms: _157  and  _158
REMARK   70  A    between atoms: _160  and  _162
REMARK   71  A    between atoms: _162  and  _163
REMARK   72  A    between atoms: _162  and  _165
REMARK   73  A    between atoms: _165  and  _166
REMARK   74  A    between atoms: _172  and  _174
REMARK   75  A    between atoms: _174  and  _175
REMARK   76  A    between atoms: _174  and  _177
REMARK   77  A    between atoms: _177  and  _178
REMARK   78  A    between atoms: _181  and  _183
REMARK   79  A    between atoms: _183  and  _184
REMARK   80  A    between atoms: _183  and  _186
REMARK   81  A    between atoms: _189  and  _191
REMARK   82  A    between atoms: _191  and  _192
REMARK   83  A    between atoms: _191  and  _194
REMARK   84  A    between atoms: _194  and  _195
REMARK   85  A    between atoms: _199  and  _200
REMARK   86  A    between atoms: _205  and  _207
REMARK   87  A    between atoms: _207  and  _208
REMARK   88  A    between atoms: _207  and  _210
REMARK   89  A    between atoms: _210  and  _211
REMARK   90  A    between atoms: _215  and  _216
REMARK   91  A    between atoms: _221  and  _223
REMARK   92  A    between atoms: _223  and  _224
REMARK   93  A    between atoms: _223  and  _226
REMARK   94  A    between atoms: _229  and  _231
REMARK   95  A    between atoms: _231  and  _232
REMARK   96  A    between atoms: _231  and  _234
REMARK   97  A    between atoms: _234  and  _235
REMARK   98  A    between atoms: _240  and  _242
REMARK   99  A    between atoms: _242  and  _243
REMARK  100  A    between atoms: _242  and  _245
REMARK  101  A    between atoms: _245  and  _246
REMARK  102  A    between atoms: _249  and  _251
REMARK  103  A    between atoms: _251  and  _252
REMARK  104  A    between atoms: _251  and  _254
REMARK  105  A    between atoms: _254  and  _255
REMARK  106  A    between atoms: _258  and  _260
REMARK  107  A    between atoms: _260  and  _261
REMARK  108  A    between atoms: _263  and  _265
REMARK  109  A    between atoms: _265  and  _266
REMARK  110  A    between atoms: _265  and  _268
REMARK  111  A    between atoms: _268  and  _269
REMARK  112  A    between atoms: _269  and  _270
REMARK  113  A    between atoms: _270  and  _271
REMARK  114  A    between atoms: _280  and  _282
REMARK  115  A    between atoms: _282  and  _283
REMARK  116  A    between atoms: _282  and  _285
REMARK  117  A    between atoms: _285  and  _286
REMARK  118  A    between atoms: _286  and  _287
REMARK  119  A    between atoms: _287  and  _288
REMARK  120  A    between atoms: _297  and  _299
REMARK  121  A    between atoms: _299  and  _300
REMARK  122  A    between atoms: _299  and  _302
REMARK  123  A    between atoms: _302  and  _303
REMARK  124  A    between atoms: _306  and  _308
REMARK  125  A    between atoms: _308  and  _309
REMARK  126  A    between atoms: _308  and  _311
REMARK  127  A    between atoms: _311  and  _312
REMARK  128  A    between atoms: _315  and  _317
REMARK  129  A    between atoms: _317  and  _318
REMARK  130  A    between atoms: _317  and  _320
REMARK  131  A    between atoms: _320  and  _321
REMARK  132  A    between atoms: _324  and  _326
REMARK  133  A    between atoms: _326  and  _327
REMARK  134  A    between atoms: _326  and  _329
REMARK  135  A    between atoms: _329  and  _330
REMARK  136  A    between atoms: _333  and  _335
REMARK  137  A    between atoms: _335  and  _336
REMARK  138  A    between atoms: _338  and  _340
REMARK  139  A    between atoms: _340  and  _341
REMARK  140  A    between atoms: _344  and  _346
REMARK  141  A    between atoms: _346  and  _347
REMARK  142  A    between atoms: _346  and  _349
REMARK  143  A    between atoms: _349  and  _350
REMARK  144  A    between atoms: _353  and  _355
REMARK  145  A    between atoms: _355  and  _356
REMARK  146  A    between atoms: _355  and  _358
REMARK  147  A    between atoms: _358  and  _359
REMARK  148  A    between atoms: _362  and  _364
REMARK  149  A    between atoms: _364  and  _365
REMARK  150  A    between atoms: _364  and  _367
REMARK  151  A    between atoms: _367  and  _368
REMARK  152  A    between atoms: _371  and  _373
REMARK  153  A    between atoms: _373  and  _374
REMARK  154  A    between atoms: _373  and  _376
REMARK  155  A    between atoms: _379  and  _381
REMARK  156  A    between atoms: _381  and  _382
REMARK  157  A    between atoms: _381  and  _384
REMARK  158  A    between atoms: _384  and  _385
REMARK  159  A    between atoms: _388  and  _390
REMARK  160  A    between atoms: _390  and  _391
REMARK  161  A    between atoms: _390  and  _393
REMARK  162  A    between atoms: _393  and  _394
REMARK  163  A    between atoms: _394  and  _395
REMARK  164  A    between atoms: _395  and  _396
REMARK  165  A    between atoms: _396  and  _397
REMARK  166  A    between atoms: _401  and  _403
REMARK  167  A    between atoms: _403  and  _404
REMARK  168  A    between atoms: _403  and  _406
REMARK  169  A    between atoms: _406  and  _407
REMARK  170  A    between atoms: _407  and  _408
REMARK  171  A    between atoms: _410  and  _412
REMARK  172  A    between atoms: _412  and  _413
REMARK  173  A    between atoms: _412  and  _415
REMARK  174  A    between atoms: _415  and  _416
REMARK  175  A    between atoms: _419  and  _421
REMARK  176  A    between atoms: _421  and  _422
REMARK  177  A    between atoms: _424  and  _426
REMARK  178  A    between atoms: _426  and  _427
REMARK  179  A    between atoms: _429  and  _431
REMARK  180  A    between atoms: _431  and  _432
REMARK  181  A    between atoms: _431  and  _434
REMARK  182  A    between atoms: _434  and  _435
REMARK  183  A    between atoms: _438  and  _440
REMARK  184  A    between atoms: _440  and  _441
REMARK  185  A    between atoms: _443  and  _445
REMARK  186  A    between atoms: _445  and  _446
REMARK  187  A    between atoms: _448  and  _450
REMARK  188  A    between atoms: _450  and  _451
REMARK  189  A    between atoms: _450  and  _453
REMARK  190  A    between atoms: _453  and  _454
REMARK  191  A    between atoms: _460  and  _462
REMARK  192  A    between atoms: _462  and  _463
REMARK  193  A    between atoms: _462  and  _465
REMARK  194  A    between atoms: _465  and  _466
REMARK  195  A    between atoms: _469  and  _471
REMARK  196  A    between atoms: _471  and  _472
REMARK  197  A    between atoms: _471  and  _474
REMARK  198  A    between atoms: _477  and  _479
REMARK  199  A    between atoms: _479  and  _480
REMARK  200  A    between atoms: _479  and  _482
REMARK  201  A    between atoms: _482  and  _483
REMARK  202  A    between atoms: _487  and  _488
REMARK  203  A    between atoms: _493  and  _495
REMARK  204  A    between atoms: _495  and  _496
REMARK  205  A    between atoms: _495  and  _498
REMARK  206  A    between atoms: _498  and  _499
REMARK  207  A    between atoms: _503  and  _504
REMARK  208  A    between atoms: _509  and  _511
REMARK  209  A    between atoms: _511  and  _512
REMARK  210  A    between atoms: _511  and  _514
REMARK  211  A    between atoms: _517  and  _519
REMARK  212  A    between atoms: _519  and  _520
REMARK  213  A    between atoms: _519  and  _522
REMARK  214  A    between atoms: _522  and  _523
REMARK  215  A    between atoms: _528  and  _530
REMARK  216  A    between atoms: _530  and  _531
REMARK  217  A    between atoms: _530  and  _533
REMARK  218  A    between atoms: _533  and  _534
REMARK  219  A    between atoms: _537  and  _539
REMARK  220  A    between atoms: _539  and  _540
REMARK  221  A    between atoms: _539  and  _542
REMARK  222  A    between atoms: _542  and  _543
REMARK  223  A    between atoms: _546  and  _548
REMARK  224  A    between atoms: _548  and  _549
REMARK  225  A    between atoms: _551  and  _553
REMARK  226  A    between atoms: _553  and  _554
REMARK  227  A    between atoms: _553  and  _556
REMARK  228  A    between atoms: _556  and  _557
REMARK  229  A    between atoms: _557  and  _558
REMARK  230  A    between atoms: _558  and  _559
REMARK  231  A    between atoms: _568  and  _570
REMARK  232  A    between atoms: _570  and  _571
REMARK  233  A    between atoms: _570  and  _573
REMARK  234  A    between atoms: _573  and  _574
REMARK                            x       y       z     vdW  Elec       q    Type
REMARK                         _______ _______ _______ _____ _____    ______ ____
ROOT
ATOM      1  CA  VAL A   1       4.691 -17.279  -5.291  0.00  0.00    +0.133 C 
ENDROOT
BRANCH   1   2
ATOM      2  CB  VAL A   1       5.571 -16.663  -6.427  0.00  0.00    +0.023 C 
ATOM      3  CG2 VAL A   1       6.427 -17.752  -7.052  0.00  0.00    +0.002 C 
ATOM      4  CG1 VAL A   1       4.710 -15.915  -7.470  0.00  0.00    +0.002 C 
ENDBRANCH   1   2
BRANCH   1   5
ATOM      5  N   VAL A   1       3.729 -18.260  -5.825  0.00  0.00    -0.239 NA
ATOM      6  H   VAL A   1       2.893 -17.914  -6.339  0.00  0.00    +0.142 HD
ENDBRANCH   1   5
BRANCH   1   7
ATOM      7  C   VAL A   1       3.934 -16.158  -4.588  0.00  0.00    +0.224 C 
ATOM      8  O   VAL A   1       2.712 -16.025  -4.749  0.00  0.00    -0.287 OA
ENDBRANCH   1   7
TORSDOF 3
REMARK  Name = ../refined-set-2016/2o4s/2o4s_pocket.pdb
REMARK  234 active torsions:
REMARK  status: ('A' for Active; 'I' for Inactive)
REMARK    1  A    between atoms: _1  and  _3
REMARK    2  A    between atoms: _3  and  _4
REMARK    3  A    between atoms: _3  and  _6
REMARK    4  A    between atoms: _6  and  _7
REMARK    5  A    between atoms: _7  and  _8
REMARK    6  A    between atoms: _8  and  _9
REMARK    7  A    between atoms: _18  and  _20
REMARK    8  A    between atoms: _20  and  _21
REMARK    9  A    between atoms: _20  and  _23
REMARK   10  A    between atoms: _23  and  _24
REMARK   11  A    between atoms: _27  and  _29
REMARK   12  A    between atoms: _29  and  _30
REMARK   13  A    between atoms: _29  and  _32
REMARK   14  A    between atoms: _32  and  _33
REMARK   15  A    between atoms: _36  and  _38
REMARK   16  A    between atoms: _38  and  _39
REMARK   17  A    between atoms: _38  and  _41
REMARK   18  A    between atoms: _41  and  _42
REMARK   19  A    between atoms: _45  and  _47
REMARK   20  A    between atoms: _47  and  _48
REMARK   21  A    between atoms: _47  and  _50
REMARK   22  A    between atoms: _50  and  _51
REMARK   23  A    between atoms: _54  and  _56
REMARK   24  A    between atoms: _56  and  _57
REMARK   25  A    between atoms: _59  and  _61
REMARK   26  A    between atoms: _61  and  _62
REMARK   27  A    between atoms: _65  and  _67
REMARK   28  A    between atoms: _67  and  _68
REMARK   29  A    between atoms: _67  and  _70
REMARK   30  A    between atoms: _70  and  _71
REMARK   31  A    between atoms: _74  and  _76
REMARK   32  A    between atoms: _76  and  _77
REMARK   33  A    between atoms: _76  and  _79
REMARK   34  A    between atoms: _79  and  _80
REMARK   35  A    between atoms: _83  and  _85
REMARK   36  A    between atoms: _85  and  _86
REMARK   37  A    between atoms: _85  and  _88
REMARK   38  A    between atoms: _88  and  _89
REMARK   39  A    between atoms: _92  and  _94
REMARK   40  A    between atoms: _94  and  _95
REMARK   41  A    between atoms: _94  and  _97
REMARK   42  A    between atoms: _100  and  _102
REMARK   43  A    between atoms: _102  and  _103
REMARK   44  A    between atoms: _102  and  _105
REMARK   45  A    between atoms: _105  and  _106
REMARK   46  A    between atoms: _106  and  _107
REMARK   47  A    between atoms: _107  and  _108
REMARK   48  A    between atoms: _108  and  _109
REMARK   49  A    between atoms: _113  and  _115
REMARK   50  A    between atoms: _115  and  _116
REMARK   51  A    between atoms: _115  and  _118
REMARK   52  A    between atoms: _118  and  _119
REMARK   53  A    between atoms: _119  and  _120
REMARK   54  A    between atoms: _122  and  _124
REMARK   55  A    between atoms: _124  and  _125
REMARK   56  A    between atoms: _124  and  _127
REMARK   57  A    between atoms: _127  and  _128
REMARK   58  A    between atoms: _131  and  _133
REMARK   59  A    between atoms: _133  and  _134
REMARK   60  A    between atoms: _136  and  _138
REMARK   61  A    between atoms: _138  and  _139
REMARK   62  A    between atoms: _141  and  _143
REMARK   63  A    between atoms: _143  and  _144
REMARK   64  A    between atoms: _143  and  _146
REMARK   65  A    between atoms: _146  and  _147
REMARK   66  A    between atoms: _150  and  _152
REMARK   67  A    between atoms: _152  and  _153
REMARK   68  A    between atoms: _155  and  _157
REMARK   69  A    between atoms: _157  and  _158
REMARK   70  A    between atoms: _160  and  _162
REMARK   71  A    between atoms: _162  and  _163
REMARK   72  A    between atoms: _162  and  _165
REMARK   73  A    between atoms: _165  and  _166
REMARK   74  A    between atoms: _172  and  _174
REMARK   75  A    between atoms: _174  and  _175
REMARK   76  A    between atoms: _174  and  _177
REMARK   77  A    between atoms: _177  and  _178
REMARK   78  A    between atoms: _181  and  _183
REMARK   79  A    between atoms: _183  and  _184
REMARK   80  A    between atoms: _183  and  _186
REMARK   81  A    between atoms: _189  and  _191
REMARK   82  A    between atoms: _191  and  _192
REMARK   83  A    between atoms: _191  and  _194
REMARK   84  A    between atoms: _194  and  _195
REMARK   85  A    between atoms: _199  and  _200
REMARK   86  A    between atoms: _205  and  _207
REMARK   87  A    between atoms: _207  and  _208
REMARK   88  A    between atoms: _207  and  _210
REMARK   89  A    between atoms: _210  and  _211
REMARK   90  A    between atoms: _215  and  _216
REMARK   91  A    between atoms: _221  and  _223
REMARK   92  A    between atoms: _223  and  _224
REMARK   93  A    between atoms: _223  and  _226
REMARK   94  A    between atoms: _229  and  _231
REMARK   95  A    between atoms: _231  and  _232
REMARK   96  A    between atoms: _231  and  _234
REMARK   97  A    between atoms: _234  and  _235
REMARK   98  A    between atoms: _240  and  _242
REMARK   99  A    between atoms: _242  and  _243
REMARK  100  A    between atoms: _242  and  _245
REMARK  101  A    between atoms: _245  and  _246
REMARK  102  A    between atoms: _249  and  _251
REMARK  103  A    between atoms: _251  and  _252
REMARK  104  A    between atoms: _251  and  _254
REMARK  105  A    between atoms: _254  and  _255
REMARK  106  A    between atoms: _258  and  _260
REMARK  107  A    between atoms: _260  and  _261
REMARK  108  A    between atoms: _263  and  _265
REMARK  109  A    between atoms: _265  and  _266
REMARK  110  A    between atoms: _265  and  _268
REMARK  111  A    between atoms: _268  and  _269
REMARK  112  A    between atoms: _269  and  _270
REMARK  113  A    between atoms: _270  and  _271
REMARK  114  A    between atoms: _280  and  _282
REMARK  115  A    between atoms: _282  and  _283
REMARK  116  A    between atoms: _282  and  _285
REMARK  117  A    between atoms: _285  and  _286
REMARK  118  A    between atoms: _286  and  _287
REMARK  119  A    between atoms: _287  and  _288
REMARK  120  A    between atoms: _297  and  _299
REMARK  121  A    between atoms: _299  and  _300
REMARK  122  A    between atoms: _299  and  _302
REMARK  123  A    between atoms: _302  and  _303
REMARK  124  A    between atoms: _306  and  _308
REMARK  125  A    between atoms: _308  and  _309
REMARK  126  A    between atoms: _308  and  _311
REMARK  127  A    between atoms: _311  and  _312
REMARK  128  A    between atoms: _315  and  _317
REMARK  129  A    between atoms: _317  and  _318
REMARK  130  A    between atoms: _317  and  _320
REMARK  131  A    between atoms: _320  and  _321
REMARK  132  A    between atoms: _324  and  _326
REMARK  133  A    between atoms: _326  and  _327
REMARK  134  A    between atoms: _326  and  _329
REMARK  135  A    between atoms: _329  and  _330
REMARK  136  A    between atoms: _333  and  _335
REMARK  137  A    between atoms: _335  and  _336
REMARK  138  A    between atoms: _338  and  _340
REMARK  139  A    between atoms: _340  and  _341
REMARK  140  A    between atoms: _344  and  _346
REMARK  141  A    between atoms: _346  and  _347
REMARK  142  A    between atoms: _346  and  _349
REMARK  143  A    between atoms: _349  and  _350
REMARK  144  A    between atoms: _353  and  _355
REMARK  145  A    between atoms: _355  and  _356
REMARK  146  A    between atoms: _355  and  _358
REMARK  147  A    between atoms: _358  and  _359
REMARK  148  A    between atoms: _362  and  _364
REMARK  149  A    between atoms: _364  and  _365
REMARK  150  A    between atoms: _364  and  _367
REMARK  151  A    between atoms: _367  and  _368
REMARK  152  A    between atoms: _371  and  _373
REMARK  153  A    between atoms: _373  and  _374
REMARK  154  A    between atoms: _373  and  _376
REMARK  155  A    between atoms: _379  and  _381
REMARK  156  A    between atoms: _381  and  _382
REMARK  157  A    between atoms: _381  and  _384
REMARK  158  A    between atoms: _384  and  _385
REMARK  159  A    between atoms: _388  and  _390
REMARK  160  A    between atoms: _390  and  _391
REMARK  161  A    between atoms: _390  and  _393
REMARK  162  A    between atoms: _393  and  _394
REMARK  163  A    between atoms: _394  and  _395
REMARK  164  A    between atoms: _395  and  _396
REMARK  165  A    between atoms: _396  and  _397
REMARK  166  A    between atoms: _401  and  _403
REMARK  167  A    between atoms: _403  and  _404
REMARK  168  A    between atoms: _403  and  _406
REMARK  169  A    between atoms: _406  and  _407
REMARK  170  A    between atoms: _407  and  _408
REMARK  171  A    between atoms: _410  and  _412
REMARK  172  A    between atoms: _412  and  _413
REMARK  173  A    between atoms: _412  and  _415
REMARK  174  A    between atoms: _415  and  _416
REMARK  175  A    between atoms: _419  and  _421
REMARK  176  A    between atoms: _421  and  _422
REMARK  177  A    between atoms: _424  and  _426
REMARK  178  A    between atoms: _426  and  _427
REMARK  179  A    between atoms: _429  and  _431
REMARK  180  A    between atoms: _431  and  _432
REMARK  181  A    between atoms: _431  and  _434
REMARK  182  A    between atoms: _434  and  _435
REMARK  183  A    between atoms: _438  and  _440
REMARK  184  A    between atoms: _440  and  _441
REMARK  185  A    between atoms: _443  and  _445
REMARK  186  A    between atoms: _445  and  _446
REMARK  187  A    between atoms: _448  and  _450
REMARK  188  A    between atoms: _450  and  _451
REMARK  189  A    between atoms: _450  and  _453
REMARK  190  A    between atoms: _453  and  _454
REMARK  191  A    between atoms: _460  and  _462
REMARK  192  A    between atoms: _462  and  _463
REMARK  193  A    between atoms: _462  and  _465
REMARK  194  A    between atoms: _465  and  _466
REMARK  195  A    between atoms: _469  and  _471
REMARK  196  A    between atoms: _471  and  _472
REMARK  197  A    between atoms: _471  and  _474
REMARK  198  A    between atoms: _477  and  _479
REMARK  199  A    between atoms: _479  and  _480
REMARK  200  A    between atoms: _479  and  _482
REMARK  201  A    between atoms: _482  and  _483
REMARK  202  A    between atoms: _487  and  _488
REMARK  203  A    between atoms: _493  and  _495
REMARK  204  A    between atoms: _495  and  _496
REMARK  205  A    between atoms: _495  and  _498
REMARK  206  A    between atoms: _498  and  _499
REMARK  207  A    between atoms: _503  and  _504
REMARK  208  A    between atoms: _509  and  _511
REMARK  209  A    between atoms: _511  and  _512
REMARK  210  A    between atoms: _511  and  _514
REMARK  211  A    between atoms: _517  and  _519
REMARK  212  A    between atoms: _519  and  _520
REMARK  213  A    between atoms: _519  and  _522
REMARK  214  A    between atoms: _522  and  _523
REMARK  215  A    between atoms: _528  and  _530
REMARK  216  A    between atoms: _530  and  _531
REMARK  217  A    between atoms: _530  and  _533
REMARK  218  A    between atoms: _533  and  _534
REMARK  219  A    between atoms: _537  and  _539
REMARK  220  A    between atoms: _539  and  _540
REMARK  221  A    between atoms: _539  and  _542
REMARK  222  A    between atoms: _542  and  _543
REMARK  223  A    between atoms: _546  and  _548
REMARK  224  A    between atoms: _548  and  _549
REMARK  225  A    between atoms: _551  and  _553
REMARK  226  A    between atoms: _553  and  _554
REMARK  227  A    between atoms: _553  and  _556
REMARK  228  A    between atoms: _556  and  _557
REMARK  229  A    between atoms: _557  and  _558
REMARK  230  A    between atoms: _558  and  _559
REMARK  231  A    between atoms: _568  and  _570
REMARK  232  A    between atoms: _570  and  _571
REMARK  233  A    between atoms: _570  and  _573
REMARK  234  A    between atoms: _573  and  _574
REMARK                            x       y       z     vdW  Elec       q    Type
REMARK                         _______ _______ _______ _____ _____    ______ ____
ROOT
ATOM      1  CA  LEU A   1       8.033 -12.539  -6.592  0.00  0.00    +0.133 C 
ENDROOT
BRANCH   1   2
ATOM      2  N   LEU A   1       8.777 -11.343  -6.953  0.00  0.00    -0.239 NA
ATOM      3  H   LEU A   1       9.411 -11.384  -7.776  0.00  0.00    +0.142 HD
ENDBRANCH   1   2
BRANCH   1   4
ATOM      4  C   LEU A   1       8.934 -13.410  -5.726  0.00  0.00    +0.224 C 
ATOM      5  O   LEU A   1      10.139 -13.497  -5.962  0.00  0.00    -0.287 OA
ENDBRANCH   1   4
BRANCH   1   6
ATOM      6  CB  LEU A   1       7.628 -13.316  -7.843  0.00  0.00    +0.025 C 
BRANCH   6   7
ATOM      7  CG  LEU A   1       6.913 -12.512  -8.942  0.00  0.00    +0.002 C 
ATOM      8  CD2 LEU A   1       5.652 -11.830  -8.395  0.00  0.00    +0.000 C 
ATOM      9  CD1 LEU A   1       6.572 -13.469 -10.074  0.00  0.00    +0.000 C 
ENDBRANCH   6   7
ENDBRANCH   1   6
TORSDOF 4
REMARK  Name = ../refined-set-2016/2o4s/2o4s_pocket.pdb
REMARK  234 active torsions:
REMARK  status: ('A' for Active; 'I' for Inactive)
REMARK    1  A    between atoms: _1  and  _3
REMARK    2  A    between atoms: _3  and  _4
REMARK    3  A    between atoms: _3  and  _6
REMARK    4  A    between atoms: _6  and  _7
REMARK    5  A    between atoms: _7  and  _8
REMARK    6  A    between atoms: _8  and  _9
REMARK    7  A    between atoms: _18  and  _20
REMARK    8  A    between atoms: _20  and  _21
REMARK    9  A    between atoms: _20  and  _23
REMARK   10  A    between atoms: _23  and  _24
REMARK   11  A    between atoms: _27  and  _29
REMARK   12  A    between atoms: _29  and  _30
REMARK   13  A    between atoms: _29  and  _32
REMARK   14  A    between atoms: _32  and  _33
REMARK   15  A    between atoms: _36  and  _38
REMARK   16  A    between atoms: _38  and  _39
REMARK   17  A    between atoms: _38  and  _41
REMARK   18  A    between atoms: _41  and  _42
REMARK   19  A    between atoms: _45  and  _47
REMARK   20  A    between atoms: _47  and  _48
REMARK   21  A    between atoms: _47  and  _50
REMARK   22  A    between atoms: _50  and  _51
REMARK   23  A    between atoms: _54  and  _56
REMARK   24  A    between atoms: _56  and  _57
REMARK   25  A    between atoms: _59  and  _61
REMARK   26  A    between atoms: _61  and  _62
REMARK   27  A    between atoms: _65  and  _67
REMARK   28  A    between atoms: _67  and  _68
REMARK   29  A    between atoms: _67  and  _70
REMARK   30  A    between atoms: _70  and  _71
REMARK   31  A    between atoms: _74  and  _76
REMARK   32  A    between atoms: _76  and  _77
REMARK   33  A    between atoms: _76  and  _79
REMARK   34  A    between atoms: _79  and  _80
REMARK   35  A    between atoms: _83  and  _85
REMARK   36  A    between atoms: _85  and  _86
REMARK   37  A    between atoms: _85  and  _88
REMARK   38  A    between atoms: _88  and  _89
REMARK   39  A    between atoms: _92  and  _94
REMARK   40  A    between atoms: _94  and  _95
REMARK   41  A    between atoms: _94  and  _97
REMARK   42  A    between atoms: _100  and  _102
REMARK   43  A    between atoms: _102  and  _103
REMARK   44  A    between atoms: _102  and  _105
REMARK   45  A    between atoms: _105  and  _106
REMARK   46  A    between atoms: _106  and  _107
REMARK   47  A    between atoms: _107  and  _108
REMARK   48  A    between atoms: _108  and  _109
REMARK   49  A    between atoms: _113  and  _115
REMARK   50  A    between atoms: _115  and  _116
REMARK   51  A    between atoms: _115  and  _118
REMARK   52  A    between atoms: _118  and  _119
REMARK   53  A    between atoms: _119  and  _120
REMARK   54  A    between atoms: _122  and  _124
REMARK   55  A    between atoms: _124  and  _125
REMARK   56  A    between atoms: _124  and  _127
REMARK   57  A    between atoms: _127  and  _128
REMARK   58  A    between atoms: _131  and  _133
REMARK   59  A    between atoms: _133  and  _134
REMARK   60  A    between atoms: _136  and  _138
REMARK   61  A    between atoms: _138  and  _139
REMARK   62  A    between atoms: _141  and  _143
REMARK   63  A    between atoms: _143  and  _144
REMARK   64  A    between atoms: _143  and  _146
REMARK   65  A    between atoms: _146  and  _147
REMARK   66  A    between atoms: _150  and  _152
REMARK   67  A    between atoms: _152  and  _153
REMARK   68  A    between atoms: _155  and  _157
REMARK   69  A    between atoms: _157  and  _158
REMARK   70  A    between atoms: _160  and  _162
REMARK   71  A    between atoms: _162  and  _163
REMARK   72  A    between atoms: _162  and  _165
REMARK   73  A    between atoms: _165  and  _166
REMARK   74  A    between atoms: _172  and  _174
REMARK   75  A    between atoms: _174  and  _175
REMARK   76  A    between atoms: _174  and  _177
REMARK   77  A    between atoms: _177  and  _178
REMARK   78  A    between atoms: _181  and  _183
REMARK   79  A    between atoms: _183  and  _184
REMARK   80  A    between atoms: _183  and  _186
REMARK   81  A    between atoms: _189  and  _191
REMARK   82  A    between atoms: _191  and  _192
REMARK   83  A    between atoms: _191  and  _194
REMARK   84  A    between atoms: _194  and  _195
REMARK   85  A    between atoms: _199  and  _200
REMARK   86  A    between atoms: _205  and  _207
REMARK   87  A    between atoms: _207  and  _208
REMARK   88  A    between atoms: _207  and  _210
REMARK   89  A    between atoms: _210  and  _211
REMARK   90  A    between atoms: _215  and  _216
REMARK   91  A    between atoms: _221  and  _223
REMARK   92  A    between atoms: _223  and  _224
REMARK   93  A    between atoms: _223  and  _226
REMARK   94  A    between atoms: _229  and  _231
REMARK   95  A    between atoms: _231  and  _232
REMARK   96  A    between atoms: _231  and  _234
REMARK   97  A    between atoms: _234  and  _235
REMARK   98  A    between atoms: _240  and  _242
REMARK   99  A    between atoms: _242  and  _243
REMARK  100  A    between atoms: _242  and  _245
REMARK  101  A    between atoms: _245  and  _246
REMARK  102  A    between atoms: _249  and  _251
REMARK  103  A    between atoms: _251  and  _252
REMARK  104  A    between atoms: _251  and  _254
REMARK  105  A    between atoms: _254  and  _255
REMARK  106  A    between atoms: _258  and  _260
REMARK  107  A    between atoms: _260  and  _261
REMARK  108  A    between atoms: _263  and  _265
REMARK  109  A    between atoms: _265  and  _266
REMARK  110  A    between atoms: _265  and  _268
REMARK  111  A    between atoms: _268  and  _269
REMARK  112  A    between atoms: _269  and  _270
REMARK  113  A    between atoms: _270  and  _271
REMARK  114  A    between atoms: _280  and  _282
REMARK  115  A    between atoms: _282  and  _283
REMARK  116  A    between atoms: _282  and  _285
REMARK  117  A    between atoms: _285  and  _286
REMARK  118  A    between atoms: _286  and  _287
REMARK  119  A    between atoms: _287  and  _288
REMARK  120  A    between atoms: _297  and  _299
REMARK  121  A    between atoms: _299  and  _300
REMARK  122  A    between atoms: _299  and  _302
REMARK  123  A    between atoms: _302  and  _303
REMARK  124  A    between atoms: _306  and  _308
REMARK  125  A    between atoms: _308  and  _309
REMARK  126  A    between atoms: _308  and  _311
REMARK  127  A    between atoms: _311  and  _312
REMARK  128  A    between atoms: _315  and  _317
REMARK  129  A    between atoms: _317  and  _318
REMARK  130  A    between atoms: _317  and  _320
REMARK  131  A    between atoms: _320  and  _321
REMARK  132  A    between atoms: _324  and  _326
REMARK  133  A    between atoms: _326  and  _327
REMARK  134  A    between atoms: _326  and  _329
REMARK  135  A    between atoms: _329  and  _330
REMARK  136  A    between atoms: _333  and  _335
REMARK  137  A    between atoms: _335  and  _336
REMARK  138  A    between atoms: _338  and  _340
REMARK  139  A    between atoms: _340  and  _341
REMARK  140  A    between atoms: _344  and  _346
REMARK  141  A    between atoms: _346  and  _347
REMARK  142  A    between atoms: _346  and  _349
REMARK  143  A    between atoms: _349  and  _350
REMARK  144  A    between atoms: _353  and  _355
REMARK  145  A    between atoms: _355  and  _356
REMARK  146  A    between atoms: _355  and  _358
REMARK  147  A    between atoms: _358  and  _359
REMARK  148  A    between atoms: _362  and  _364
REMARK  149  A    between atoms: _364  and  _365
REMARK  150  A    between atoms: _364  and  _367
REMARK  151  A    between atoms: _367  and  _368
REMARK  152  A    between atoms: _371  and  _373
REMARK  153  A    between atoms: _373  and  _374
REMARK  154  A    between atoms: _373  and  _376
REMARK  155  A    between atoms: _379  and  _381
REMARK  156  A    between atoms: _381  and  _382
REMARK  157  A    between atoms: _381  and  _384
REMARK  158  A    between atoms: _384  and  _385
REMARK  159  A    between atoms: _388  and  _390
REMARK  160  A    between atoms: _390  and  _391
REMARK  161  A    between atoms: _390  and  _393
REMARK  162  A    between atoms: _393  and  _394
REMARK  163  A    between atoms: _394  and  _395
REMARK  164  A    between atoms: _395  and  _396
REMARK  165  A    between atoms: _396  and  _397
REMARK  166  A    between atoms: _401  and  _403
REMARK  167  A    between atoms: _403  and  _404
REMARK  168  A    between atoms: _403  and  _406
REMARK  169  A    between atoms: _406  and  _407
REMARK  170  A    between atoms: _407  and  _408
REMARK  171  A    between atoms: _410  and  _412
REMARK  172  A    between atoms: _412  and  _413
REMARK  173  A    between atoms: _412  and  _415
REMARK  174  A    between atoms: _415  and  _416
REMARK  175  A    between atoms: _419  and  _421
REMARK  176  A    between atoms: _421  and  _422
REMARK  177  A    between atoms: _424  and  _426
REMARK  178  A    between atoms: _426  and  _427
REMARK  179  A    between atoms: _429  and  _431
REMARK  180  A    between atoms: _431  and  _432
REMARK  181  A    between atoms: _431  and  _434
REMARK  182  A    between atoms: _434  and  _435
REMARK  183  A    between atoms: _438  and  _440
REMARK  184  A    between atoms: _440  and  _441
REMARK  185  A    between atoms: _443  and  _445
REMARK  186  A    between atoms: _445  and  _446
REMARK  187  A    between atoms: _448  and  _450
REMARK  188  A    between atoms: _450  and  _451
REMARK  189  A    between atoms: _450  and  _453
REMARK  190  A    between atoms: _453  and  _454
REMARK  191  A    between atoms: _460  and  _462
REMARK  192  A    between atoms: _462  and  _463
REMARK  193  A    between atoms: _462  and  _465
REMARK  194  A    between atoms: _465  and  _466
REMARK  195  A    between atoms: _469  and  _471
REMARK  196  A    between atoms: _471  and  _472
REMARK  197  A    between atoms: _471  and  _474
REMARK  198  A    between atoms: _477  and  _479
REMARK  199  A    between atoms: _479  and  _480
REMARK  200  A    between atoms: _479  and  _482
REMARK  201  A    between atoms: _482  and  _483
REMARK  202  A    between atoms: _487  and  _488
REMARK  203  A    between atoms: _493  and  _495
REMARK  204  A    between atoms: _495  and  _496
REMARK  205  A    between atoms: _495  and  _498
REMARK  206  A    between atoms: _498  and  _499
REMARK  207  A    between atoms: _503  and  _504
REMARK  208  A    between atoms: _509  and  _511
REMARK  209  A    between atoms: _511  and  _512
REMARK  210  A    between atoms: _511  and  _514
REMARK  211  A    between atoms: _517  and  _519
REMARK  212  A    between atoms: _519  and  _520
REMARK  213  A    between atoms: _519  and  _522
REMARK  214  A    between atoms: _522  and  _523
REMARK  215  A    between atoms: _528  and  _530
REMARK  216  A    between atoms: _530  and  _531
REMARK  217  A    between atoms: _530  and  _533
REMARK  218  A    between atoms: _533  and  _534
REMARK  219  A    between atoms: _537  and  _539
REMARK  220  A    between atoms: _539  and  _540
REMARK  221  A    between atoms: _539  and  _542
REMARK  222  A    between atoms: _542  and  _543
REMARK  223  A    between atoms: _546  and  _548
REMARK  224  A    between atoms: _548  and  _549
REMARK  225  A    between atoms: _551  and  _553
REMARK  226  A    between atoms: _553  and  _554
REMARK  227  A    between atoms: _553  and  _556
REMARK  228  A    between atoms: _556  and  _557
REMARK  229  A    between atoms: _557  and  _558
REMARK  230  A    between atoms: _558  and  _559
REMARK  231  A    between atoms: _568  and  _570
REMARK  232  A    between atoms: _570  and  _571
REMARK  233  A    between atoms: _570  and  _573
REMARK  234  A    between atoms: _573  and  _574
REMARK                            x       y       z     vdW  Elec       q    Type
REMARK                         _______ _______ _______ _____ _____    ______ ____
ROOT
ATOM      1  C   ASN A   5      17.281 -15.966  -9.562  0.00  0.00    +0.241 C 
ATOM      2  N   ILE A   6      16.194 -15.326  -9.973  0.00  0.00    -0.297 N 
ATOM      3  H   ILE A   6      15.415 -15.192  -9.297  0.00  0.00    +0.150 HD
ATOM      4  O   ASN A   5      18.353 -16.058 -10.210  0.00  0.00    -0.273 OA
ENDROOT
BRANCH   2   5
ATOM      5  CA  ILE A   6      16.034 -14.795 -11.339  0.00  0.00    +0.149 C 
BRANCH   5   6
ATOM      6  C   ILE A   6      15.725 -13.313 -11.345  0.00  0.00    +0.241 C 
ATOM      7  O   ILE A   6      14.774 -12.868 -10.716  0.00  0.00    -0.273 OA
ATOM      8  N   ILE A   7      16.563 -12.546 -12.050  0.00  0.00    -0.297 N 
ATOM      9  H   ILE A   7      17.448 -12.961 -12.406  0.00  0.00    +0.150 HD
BRANCH   8  10
ATOM     10  CA  ILE A   7      16.272 -11.136 -12.337  0.00  0.00    +0.149 C 
BRANCH  10  11
ATOM     11  C   ILE A   7      15.642 -11.064 -13.739  0.00  0.00    +0.241 C 
ATOM     12  N   GLY A   8      14.350 -10.725 -13.786  0.00  0.00    -0.295 N 
ATOM     13  H   GLY A   8      13.870 -10.465 -12.901  0.00  0.00    +0.150 HD
ATOM     14  O   ILE A   7      16.299 -11.382 -14.734  0.00  0.00    -0.273 OA
BRANCH  12  15
ATOM     15  CA  GLY A   8      13.584 -10.705 -15.031  0.00  0.00    +0.176 C 
BRANCH  15  16
ATOM     16  C   GLY A   8      13.514  -9.329 -15.639  0.00  0.00    +0.243 C 
ATOM     17  O   GLY A   8      14.111  -8.366 -15.112  0.00  0.00    -0.273 OA
ATOM     18  N   ARG A   9      12.814  -9.234 -16.767  0.00  0.00    -0.298 N 
ATOM     19  H   ARG A   9      12.221 -10.028 -17.082  0.00  0.00    +0.150 HD
BRANCH  18  20
ATOM     20  CA  ARG A   9      12.883  -8.006 -17.562  0.00  0.00    +0.137 C 
BRANCH  20  21
ATOM     21  C   ARG A   9      12.378  -6.786 -16.810  0.00  0.00    +0.227 C 
ATOM     22  O   ARG A   9      12.804  -5.647 -17.080  0.00  0.00    -0.286 OA
ENDBRANCH  20  21
BRANCH  20  23
ATOM     23  CB  ARG A   9      12.087  -8.161 -18.851  0.00  0.00    +0.031 C 
BRANCH  23  24
ATOM     24  CG  ARG A   9      12.700  -9.209 -19.798  0.00  0.00    +0.045 C 
BRANCH  24  25
ATOM     25  CD  ARG A   9      12.001  -9.221 -21.184  0.00  0.00    +0.174 C 
BRANCH  25  26
ATOM     26  NE  ARG A   9      10.617  -9.704 -21.023  0.00  0.00    -0.265 N 
ATOM     27  CZ  ARG A   9       9.540  -8.920 -20.940  0.00  0.00    +0.342 C 
ATOM     28  NH2 ARG A   9       8.344  -9.456 -20.751  0.00  0.00    -0.292 N 
ATOM     29 HH21 ARG A   9       8.244 -10.488 -20.667  0.00  0.00    +0.255 HD
ATOM     30 HH22 ARG A   9       7.505  -8.845 -20.686  0.00  0.00    +0.255 HD
ATOM     31  NH1 ARG A   9       9.639  -7.586 -21.044  0.00  0.00    -0.292 N 
ATOM     32 HH11 ARG A   9       8.786  -6.994 -20.976  0.00  0.00    +0.255 HD
ATOM     33 HH12 ARG A   9      10.568  -7.144 -21.192  0.00  0.00    +0.255 HD
ATOM     34  HE  ARG A   9      10.469 -10.732 -20.970  0.00  0.00    +0.259 HD
ENDBRANCH  25  26
ENDBRANCH  24  25
ENDBRANCH  23  24
ENDBRANCH  20  23
ENDBRANCH  18  20
ENDBRANCH  15  16
ENDBRANCH  12  15
ENDBRANCH  10  11
BRANCH  10  35
ATOM     35  CB  ILE A   7      17.499 -10.225 -12.287  0.00  0.00    +0.027 C 
ATOM     36  CG2 ILE A   7      17.094  -8.755 -12.594  0.00  0.00    +0.002 C 
BRANCH  35  37
ATOM     37  CG1 ILE A   7      18.232 -10.331 -10.934  0.00  0.00    +0.002 C 
ATOM     38  CD1 ILE A   7      17.326 -10.137  -9.701  0.00  0.00    +0.000 C 
ENDBRANCH  35  37
ENDBRANCH  10  35
ENDBRANCH   8  10
ENDBRANCH   5   6
BRANCH   5  39
ATOM     39  CB  ILE A   6      14.934 -15.573 -12.060  0.00  0.00    +0.027 C 
ATOM     40  CG2 ILE A   6      14.476 -14.878 -13.362  0.00  0.00    +0.002 C 
BRANCH  39  41
ATOM     41  CG1 ILE A   6      15.396 -17.002 -12.298  0.00  0.00    +0.002 C 
ATOM     42  CD1 ILE A   6      14.251 -17.940 -12.600  0.00  0.00    +0.000 C 
ENDBRANCH  39  41
ENDBRANCH   5  39
ENDBRANCH   2   5
BRANCH   1  43
ATOM     43  CA  ASN A   5      17.180 -16.539  -8.153  0.00  0.00    +0.158 C 
BRANCH  43  45
ATOM     44  C   VAL A   4      16.827 -18.858  -8.818  0.00  0.00    +0.241 C 
ATOM     45  N   ASN A   5      17.596 -17.946  -8.211  0.00  0.00    -0.297 N 
ATOM     46  H   ASN A   5      18.495 -18.236  -7.777  0.00  0.00    +0.150 HD
ATOM     47  O   VAL A   4      15.690 -18.591  -9.224  0.00  0.00    -0.273 OA
BRANCH  44  48
ATOM     48  CA  VAL A   4      17.396 -20.294  -8.935  0.00  0.00    +0.149 C 
BRANCH  48  51
ATOM     49  C   PRO A   3      16.436 -22.452  -8.246  0.00  0.00    +0.241 C 
ATOM     50  O   PRO A   3      17.504 -22.812  -7.705  0.00  0.00    -0.273 OA
ATOM     51  N   VAL A   4      16.293 -21.269  -8.844  0.00  0.00    -0.297 N 
ATOM     52  H   VAL A   4      15.372 -21.025  -9.261  0.00  0.00    +0.150 HD
BRANCH  49  56
ATOM     53  C   THR A   2      13.484 -21.880  -7.476  0.00  0.00    +0.246 C 
ATOM     54  O   THR A   2      14.092 -21.739  -6.417  0.00  0.00    -0.273 OA
ATOM     55  N   PRO A   3      13.942 -22.675  -8.478  0.00  0.00    -0.272 N 
ATOM     56  CA  PRO A   3      15.224 -23.385  -8.278  0.00  0.00    +0.152 C 
ATOM     57  CB  PRO A   3      15.311 -24.333  -9.479  0.00  0.00    +0.031 C 
ATOM     58  CG  PRO A   3      13.981 -24.277 -10.171  0.00  0.00    +0.024 C 
ATOM     59  CD  PRO A   3      13.336 -22.971  -9.789  0.00  0.00    +0.094 C 
BRANCH  53  60
ATOM     60  CA  THR A   2      12.151 -21.130  -7.701  0.00  0.00    +0.176 C 
BRANCH  60  62
ATOM     61  C   PRO A   1      10.758 -22.201  -6.040  0.00  0.00    +0.239 C 
ATOM     62  N   THR A   2      11.349 -21.099  -6.480  0.00  0.00    -0.295 N 
ATOM     63  H   THR A   2      11.241 -20.208  -5.954  0.00  0.00    +0.150 HD
ATOM     64  O   PRO A   1      10.703 -23.248  -6.693  0.00  0.00    -0.274 OA
BRANCH  61  69
ATOM     65  N   PRO A   1       9.254 -20.965  -4.452  0.00  0.00    -0.210 NA
ATOM     66  CD  PRO A   1       7.823 -21.362  -4.490  0.00  0.00    +0.089 C 
ATOM     67  CG  PRO A   1       7.876 -22.850  -4.724  0.00  0.00    +0.021 C 
ATOM     68  CB  PRO A   1       9.286 -23.311  -4.315  0.00  0.00    +0.028 C 
ATOM     69  CA  PRO A   1      10.166 -22.105  -4.644  0.00  0.00    +0.149 C 
ENDBRANCH  61  69
ENDBRANCH  60  62
BRANCH  60  70
ATOM     70  CB  THR A   2      12.424 -19.708  -8.236  0.00  0.00    +0.137 C 
ATOM     71  CG2 THR A   2      13.160 -18.799  -7.202  0.00  0.00    +0.034 C 
BRANCH  70  72
ATOM     72  OG1 THR A   2      13.235 -19.830  -9.396  0.00  0.00    -0.382 OA
ATOM     73  HG1 THR A   2      14.085 -20.277  -9.157  0.00  0.00    +0.210 HD
ENDBRANCH  70  72
ENDBRANCH  60  70
ENDBRANCH  53  60
ENDBRANCH  49  56
ENDBRANCH  48  51
BRANCH  48  74
ATOM     74  CB  VAL A   4      18.229 -20.444 -10.248  0.00  0.00    +0.027 C 
ATOM     75  CG2 VAL A   4      18.568 -21.928 -10.577  0.00  0.00    +0.002 C 
ATOM     76  CG1 VAL A   4      17.547 -19.803 -11.410  0.00  0.00    +0.002 C 
ENDBRANCH  48  74
ENDBRANCH  44  48
ENDBRANCH  43  45
BRANCH  43  77
ATOM     77  CB  ASN A   5      18.081 -15.711  -7.240  0.00  0.00    +0.114 C 
BRANCH  77  78
ATOM     78  CG  ASN A   5      17.961 -16.098  -5.772  0.00  0.00    +0.222 C 
ATOM     79  ND2 ASN A   5      19.102 -16.092  -5.054  0.00  0.00    -0.329 N 
ATOM     80 HD21 ASN A   5      19.080 -16.324  -4.040  0.00  0.00    +0.145 HD
ATOM     81 HD22 ASN A   5      20.004 -15.856  -5.514  0.00  0.00    +0.145 HD
ATOM     82  OD1 ASN A   5      16.853 -16.371  -5.284  0.00  0.00    -0.275 OA
ENDBRANCH  77  78
ENDBRANCH  43  77
ENDBRANCH   1  43
TORSDOF 29
REMARK  Name = ../refined-set-2016/2o4s/2o4s_pocket.pdb
REMARK  234 active torsions:
REMARK  status: ('A' for Active; 'I' for Inactive)
REMARK    1  A    between atoms: _1  and  _3
REMARK    2  A    between atoms: _3  and  _4
REMARK    3  A    between atoms: _3  and  _6
REMARK    4  A    between atoms: _6  and  _7
REMARK    5  A    between atoms: _7  and  _8
REMARK    6  A    between atoms: _8  and  _9
REMARK    7  A    between atoms: _18  and  _20
REMARK    8  A    between atoms: _20  and  _21
REMARK    9  A    between atoms: _20  and  _23
REMARK   10  A    between atoms: _23  and  _24
REMARK   11  A    between atoms: _27  and  _29
REMARK   12  A    between atoms: _29  and  _30
REMARK   13  A    between atoms: _29  and  _32
REMARK   14  A    between atoms: _32  and  _33
REMARK   15  A    between atoms: _36  and  _38
REMARK   16  A    between atoms: _38  and  _39
REMARK   17  A    between atoms: _38  and  _41
REMARK   18  A    between atoms: _41  and  _42
REMARK   19  A    between atoms: _45  and  _47
REMARK   20  A    between atoms: _47  and  _48
REMARK   21  A    between atoms: _47  and  _50
REMARK   22  A    between atoms: _50  and  _51
REMARK   23  A    between atoms: _54  and  _56
REMARK   24  A    between atoms: _56  and  _57
REMARK   25  A    between atoms: _59  and  _61
REMARK   26  A    between atoms: _61  and  _62
REMARK   27  A    between atoms: _65  and  _67
REMARK   28  A    between atoms: _67  and  _68
REMARK   29  A    between atoms: _67  and  _70
REMARK   30  A    between atoms: _70  and  _71
REMARK   31  A    between atoms: _74  and  _76
REMARK   32  A    between atoms: _76  and  _77
REMARK   33  A    between atoms: _76  and  _79
REMARK   34  A    between atoms: _79  and  _80
REMARK   35  A    between atoms: _83  and  _85
REMARK   36  A    between atoms: _85  and  _86
REMARK   37  A    between atoms: _85  and  _88
REMARK   38  A    between atoms: _88  and  _89
REMARK   39  A    between atoms: _92  and  _94
REMARK   40  A    between atoms: _94  and  _95
REMARK   41  A    between atoms: _94  and  _97
REMARK   42  A    between atoms: _100  and  _102
REMARK   43  A    between atoms: _102  and  _103
REMARK   44  A    between atoms: _102  and  _105
REMARK   45  A    between atoms: _105  and  _106
REMARK   46  A    between atoms: _106  and  _107
REMARK   47  A    between atoms: _107  and  _108
REMARK   48  A    between atoms: _108  and  _109
REMARK   49  A    between atoms: _113  and  _115
REMARK   50  A    between atoms: _115  and  _116
REMARK   51  A    between atoms: _115  and  _118
REMARK   52  A    between atoms: _118  and  _119
REMARK   53  A    between atoms: _119  and  _120
REMARK   54  A    between atoms: _122  and  _124
REMARK   55  A    between atoms: _124  and  _125
REMARK   56  A    between atoms: _124  and  _127
REMARK   57  A    between atoms: _127  and  _128
REMARK   58  A    between atoms: _131  and  _133
REMARK   59  A    between atoms: _133  and  _134
REMARK   60  A    between atoms: _136  and  _138
REMARK   61  A    between atoms: _138  and  _139
REMARK   62  A    between atoms: _141  and  _143
REMARK   63  A    between atoms: _143  and  _144
REMARK   64  A    between atoms: _143  and  _146
REMARK   65  A    between atoms: _146  and  _147
REMARK   66  A    between atoms: _150  and  _152
REMARK   67  A    between atoms: _152  and  _153
REMARK   68  A    between atoms: _155  and  _157
REMARK   69  A    between atoms: _157  and  _158
REMARK   70  A    between atoms: _160  and  _162
REMARK   71  A    between atoms: _162  and  _163
REMARK   72  A    between atoms: _162  and  _165
REMARK   73  A    between atoms: _165  and  _166
REMARK   74  A    between atoms: _172  and  _174
REMARK   75  A    between atoms: _174  and  _175
REMARK   76  A    between atoms: _174  and  _177
REMARK   77  A    between atoms: _177  and  _178
REMARK   78  A    between atoms: _181  and  _183
REMARK   79  A    between atoms: _183  and  _184
REMARK   80  A    between atoms: _183  and  _186
REMARK   81  A    between atoms: _189  and  _191
REMARK   82  A    between atoms: _191  and  _192
REMARK   83  A    between atoms: _191  and  _194
REMARK   84  A    between atoms: _194  and  _195
REMARK   85  A    between atoms: _199  and  _200
REMARK   86  A    between atoms: _205  and  _207
REMARK   87  A    between atoms: _207  and  _208
REMARK   88  A    between atoms: _207  and  _210
REMARK   89  A    between atoms: _210  and  _211
REMARK   90  A    between atoms: _215  and  _216
REMARK   91  A    between atoms: _221  and  _223
REMARK   92  A    between atoms: _223  and  _224
REMARK   93  A    between atoms: _223  and  _226
REMARK   94  A    between atoms: _229  and  _231
REMARK   95  A    between atoms: _231  and  _232
REMARK   96  A    between atoms: _231  and  _234
REMARK   97  A    between atoms: _234  and  _235
REMARK   98  A    between atoms: _240  and  _242
REMARK   99  A    between atoms: _242  and  _243
REMARK  100  A    between atoms: _242  and  _245
REMARK  101  A    between atoms: _245  and  _246
REMARK  102  A    between atoms: _249  and  _251
REMARK  103  A    between atoms: _251  and  _252
REMARK  104  A    between atoms: _251  and  _254
REMARK  105  A    between atoms: _254  and  _255
REMARK  106  A    between atoms: _258  and  _260
REMARK  107  A    between atoms: _260  and  _261
REMARK  108  A    between atoms: _263  and  _265
REMARK  109  A    between atoms: _265  and  _266
REMARK  110  A    between atoms: _265  and  _268
REMARK  111  A    between atoms: _268  and  _269
REMARK  112  A    between atoms: _269  and  _270
REMARK  113  A    between atoms: _270  and  _271
REMARK  114  A    between atoms: _280  and  _282
REMARK  115  A    between atoms: _282  and  _283
REMARK  116  A    between atoms: _282  and  _285
REMARK  117  A    between atoms: _285  and  _286
REMARK  118  A    between atoms: _286  and  _287
REMARK  119  A    between atoms: _287  and  _288
REMARK  120  A    between atoms: _297  and  _299
REMARK  121  A    between atoms: _299  and  _300
REMARK  122  A    between atoms: _299  and  _302
REMARK  123  A    between atoms: _302  and  _303
REMARK  124  A    between atoms: _306  and  _308
REMARK  125  A    between atoms: _308  and  _309
REMARK  126  A    between atoms: _308  and  _311
REMARK  127  A    between atoms: _311  and  _312
REMARK  128  A    between atoms: _315  and  _317
REMARK  129  A    between atoms: _317  and  _318
REMARK  130  A    between atoms: _317  and  _320
REMARK  131  A    between atoms: _320  and  _321
REMARK  132  A    between atoms: _324  and  _326
REMARK  133  A    between atoms: _326  and  _327
REMARK  134  A    between atoms: _326  and  _329
REMARK  135  A    between atoms: _329  and  _330
REMARK  136  A    between atoms: _333  and  _335
REMARK  137  A    between atoms: _335  and  _336
REMARK  138  A    between atoms: _338  and  _340
REMARK  139  A    between atoms: _340  and  _341
REMARK  140  A    between atoms: _344  and  _346
REMARK  141  A    between atoms: _346  and  _347
REMARK  142  A    between atoms: _346  and  _349
REMARK  143  A    between atoms: _349  and  _350
REMARK  144  A    between atoms: _353  and  _355
REMARK  145  A    between atoms: _355  and  _356
REMARK  146  A    between atoms: _355  and  _358
REMARK  147  A    between atoms: _358  and  _359
REMARK  148  A    between atoms: _362  and  _364
REMARK  149  A    between atoms: _364  and  _365
REMARK  150  A    between atoms: _364  and  _367
REMARK  151  A    between atoms: _367  and  _368
REMARK  152  A    between atoms: _371  and  _373
REMARK  153  A    between atoms: _373  and  _374
REMARK  154  A    between atoms: _373  and  _376
REMARK  155  A    between atoms: _379  and  _381
REMARK  156  A    between atoms: _381  and  _382
REMARK  157  A    between atoms: _381  and  _384
REMARK  158  A    between atoms: _384  and  _385
REMARK  159  A    between atoms: _388  and  _390
REMARK  160  A    between atoms: _390  and  _391
REMARK  161  A    between atoms: _390  and  _393
REMARK  162  A    between atoms: _393  and  _394
REMARK  163  A    between atoms: _394  and  _395
REMARK  164  A    between atoms: _395  and  _396
REMARK  165  A    between atoms: _396  and  _397
REMARK  166  A    between atoms: _401  and  _403
REMARK  167  A    between atoms: _403  and  _404
REMARK  168  A    between atoms: _403  and  _406
REMARK  169  A    between atoms: _406  and  _407
REMARK  170  A    between atoms: _407  and  _408
REMARK  171  A    between atoms: _410  and  _412
REMARK  172  A    between atoms: _412  and  _413
REMARK  173  A    between atoms: _412  and  _415
REMARK  174  A    between atoms: _415  and  _416
REMARK  175  A    between atoms: _419  and  _421
REMARK  176  A    between atoms: _421  and  _422
REMARK  177  A    between atoms: _424  and  _426
REMARK  178  A    between atoms: _426  and  _427
REMARK  179  A    between atoms: _429  and  _431
REMARK  180  A    between atoms: _431  and  _432
REMARK  181  A    between atoms: _431  and  _434
REMARK  182  A    between atoms: _434  and  _435
REMARK  183  A    between atoms: _438  and  _440
REMARK  184  A    between atoms: _440  and  _441
REMARK  185  A    between atoms: _443  and  _445
REMARK  186  A    between atoms: _445  and  _446
REMARK  187  A    between atoms: _448  and  _450
REMARK  188  A    between atoms: _450  and  _451
REMARK  189  A    between atoms: _450  and  _453
REMARK  190  A    between atoms: _453  and  _454
REMARK  191  A    between atoms: _460  and  _462
REMARK  192  A    between atoms: _462  and  _463
REMARK  193  A    between atoms: _462  and  _465
REMARK  194  A    between atoms: _465  and  _466
REMARK  195  A    between atoms: _469  and  _471
REMARK  196  A    between atoms: _471  and  _472
REMARK  197  A    between atoms: _471  and  _474
REMARK  198  A    between atoms: _477  and  _479
REMARK  199  A    between atoms: _479  and  _480
REMARK  200  A    between atoms: _479  and  _482
REMARK  201  A    between atoms: _482  and  _483
REMARK  202  A    between atoms: _487  and  _488
REMARK  203  A    between atoms: _493  and  _495
REMARK  204  A    between atoms: _495  and  _496
REMARK  205  A    between atoms: _495  and  _498
REMARK  206  A    between atoms: _498  and  _499
REMARK  207  A    between atoms: _503  and  _504
REMARK  208  A    between atoms: _509  and  _511
REMARK  209  A    between atoms: _511  and  _512
REMARK  210  A    between atoms: _511  and  _514
REMARK  211  A    between atoms: _517  and  _519
REMARK  212  A    between atoms: _519  and  _520
REMARK  213  A    between atoms: _519  and  _522
REMARK  214  A    between atoms: _522  and  _523
REMARK  215  A    between atoms: _528  and  _530
REMARK  216  A    between atoms: _530  and  _531
REMARK  217  A    between atoms: _530  and  _533
REMARK  218  A    between atoms: _533  and  _534
REMARK  219  A    between atoms: _537  and  _539
REMARK  220  A    between atoms: _539  and  _540
REMARK  221  A    between atoms: _539  and  _542
REMARK  222  A    between atoms: _542  and  _543
REMARK  223  A    between atoms: _546  and  _548
REMARK  224  A    between atoms: _548  and  _549
REMARK  225  A    between atoms: _551  and  _553
REMARK  226  A    between atoms: _553  and  _554
REMARK  227  A    between atoms: _553  and  _556
REMARK  228  A    between atoms: _556  and  _557
REMARK  229  A    between atoms: _557  and  _558
REMARK  230  A    between atoms: _558  and  _559
REMARK  231  A    between atoms: _568  and  _570
REMARK  232  A    between atoms: _570  and  _571
REMARK  233  A    between atoms: _570  and  _573
REMARK  234  A    between atoms: _573  and  _574
REMARK                            x       y       z     vdW  Elec       q    Type
REMARK                         _______ _______ _______ _____ _____    ______ ____
ROOT
ATOM      1  NE  ARG A   1       6.624 -13.298 -22.610  0.00  0.00    -0.265 N 
ATOM      2  HE  ARG A   1       6.720 -12.724 -21.748  0.00  0.00    +0.259 HD
ATOM      3  CZ  ARG A   1       5.875 -14.403 -22.549  0.00  0.00    +0.342 C 
ATOM      4  NH2 ARG A   1       5.276 -14.724 -21.404  0.00  0.00    -0.292 N 
ATOM      5 HH21 ARG A   1       5.393 -14.117 -20.568  0.00  0.00    +0.255 HD
ATOM      6 HH22 ARG A   1       4.691 -15.582 -21.346  0.00  0.00    +0.255 HD
ATOM      7  NH1 ARG A   1       5.698 -15.171 -23.638  0.00  0.00    -0.292 N 
ATOM      8 HH11 ARG A   1       5.113 -16.029 -23.580  0.00  0.00    +0.255 HD
ATOM      9 HH12 ARG A   1       6.146 -14.907 -24.539  0.00  0.00    +0.255 HD
ENDROOT
BRANCH   1  10
ATOM     10  CD  ARG A   1       7.315 -12.850 -23.813  0.00  0.00    +0.174 C 
BRANCH  10  11
ATOM     11  CG  ARG A   1       8.117 -11.574 -23.535  0.00  0.00    +0.045 C 
BRANCH  11  12
ATOM     12  CB  ARG A   1       8.863 -11.219 -24.792  0.00  0.00    +0.029 C 
BRANCH  12  13
ATOM     13  CA  ARG A   1       9.789 -10.028 -24.641  0.00  0.00    +0.133 C 
BRANCH  13  14
ATOM     14  N   ARG A   1       9.009  -8.794 -24.488  0.00  0.00    -0.239 NA
ATOM     15  H   ARG A   1       7.970  -8.818 -24.520  0.00  0.00    +0.142 HD
ENDBRANCH  13  14
BRANCH  13  16
ATOM     16  C   ARG A   1      10.723  -9.962 -25.868  0.00  0.00    +0.224 C 
ATOM     17  O   ARG A   1      10.301  -9.474 -26.926  0.00  0.00    -0.287 OA
ENDBRANCH  13  16
ENDBRANCH  12  13
ENDBRANCH  11  12
ENDBRANCH  10  11
ENDBRANCH   1  10
TORSDOF 6
REMARK  Name = ../refined-set-2016/2o4s/2o4s_pocket.pdb
REMARK  234 active torsions:
REMARK  status: ('A' for Active; 'I' for Inactive)
REMARK    1  A    between atoms: _1  and  _3
REMARK    2  A    between atoms: _3  and  _4
REMARK    3  A    between atoms: _3  and  _6
REMARK    4  A    between atoms: _6  and  _7
REMARK    5  A    between atoms: _7  and  _8
REMARK    6  A    between atoms: _8  and  _9
REMARK    7  A    between atoms: _18  and  _20
REMARK    8  A    between atoms: _20  and  _21
REMARK    9  A    between atoms: _20  and  _23
REMARK   10  A    between atoms: _23  and  _24
REMARK   11  A    between atoms: _27  and  _29
REMARK   12  A    between atoms: _29  and  _30
REMARK   13  A    between atoms: _29  and  _32
REMARK   14  A    between atoms: _32  and  _33
REMARK   15  A    between atoms: _36  and  _38
REMARK   16  A    between atoms: _38  and  _39
REMARK   17  A    between atoms: _38  and  _41
REMARK   18  A    between atoms: _41  and  _42
REMARK   19  A    between atoms: _45  and  _47
REMARK   20  A    between atoms: _47  and  _48
REMARK   21  A    between atoms: _47  and  _50
REMARK   22  A    between atoms: _50  and  _51
REMARK   23  A    between atoms: _54  and  _56
REMARK   24  A    between atoms: _56  and  _57
REMARK   25  A    between atoms: _59  and  _61
REMARK   26  A    between atoms: _61  and  _62
REMARK   27  A    between atoms: _65  and  _67
REMARK   28  A    between atoms: _67  and  _68
REMARK   29  A    between atoms: _67  and  _70
REMARK   30  A    between atoms: _70  and  _71
REMARK   31  A    between atoms: _74  and  _76
REMARK   32  A    between atoms: _76  and  _77
REMARK   33  A    between atoms: _76  and  _79
REMARK   34  A    between atoms: _79  and  _80
REMARK   35  A    between atoms: _83  and  _85
REMARK   36  A    between atoms: _85  and  _86
REMARK   37  A    between atoms: _85  and  _88
REMARK   38  A    between atoms: _88  and  _89
REMARK   39  A    between atoms: _92  and  _94
REMARK   40  A    between atoms: _94  and  _95
REMARK   41  A    between atoms: _94  and  _97
REMARK   42  A    between atoms: _100  and  _102
REMARK   43  A    between atoms: _102  and  _103
REMARK   44  A    between atoms: _102  and  _105
REMARK   45  A    between atoms: _105  and  _106
REMARK   46  A    between atoms: _106  and  _107
REMARK   47  A    between atoms: _107  and  _108
REMARK   48  A    between atoms: _108  and  _109
REMARK   49  A    between atoms: _113  and  _115
REMARK   50  A    between atoms: _115  and  _116
REMARK   51  A    between atoms: _115  and  _118
REMARK   52  A    between atoms: _118  and  _119
REMARK   53  A    between atoms: _119  and  _120
REMARK   54  A    between atoms: _122  and  _124
REMARK   55  A    between atoms: _124  and  _125
REMARK   56  A    between atoms: _124  and  _127
REMARK   57  A    between atoms: _127  and  _128
REMARK   58  A    between atoms: _131  and  _133
REMARK   59  A    between atoms: _133  and  _134
REMARK   60  A    between atoms: _136  and  _138
REMARK   61  A    between atoms: _138  and  _139
REMARK   62  A    between atoms: _141  and  _143
REMARK   63  A    between atoms: _143  and  _144
REMARK   64  A    between atoms: _143  and  _146
REMARK   65  A    between atoms: _146  and  _147
REMARK   66  A    between atoms: _150  and  _152
REMARK   67  A    between atoms: _152  and  _153
REMARK   68  A    between atoms: _155  and  _157
REMARK   69  A    between atoms: _157  and  _158
REMARK   70  A    between atoms: _160  and  _162
REMARK   71  A    between atoms: _162  and  _163
REMARK   72  A    between atoms: _162  and  _165
REMARK   73  A    between atoms: _165  and  _166
REMARK   74  A    between atoms: _172  and  _174
REMARK   75  A    between atoms: _174  and  _175
REMARK   76  A    between atoms: _174  and  _177
REMARK   77  A    between atoms: _177  and  _178
REMARK   78  A    between atoms: _181  and  _183
REMARK   79  A    between atoms: _183  and  _184
REMARK   80  A    between atoms: _183  and  _186
REMARK   81  A    between atoms: _189  and  _191
REMARK   82  A    between atoms: _191  and  _192
REMARK   83  A    between atoms: _191  and  _194
REMARK   84  A    between atoms: _194  and  _195
REMARK   85  A    between atoms: _199  and  _200
REMARK   86  A    between atoms: _205  and  _207
REMARK   87  A    between atoms: _207  and  _208
REMARK   88  A    between atoms: _207  and  _210
REMARK   89  A    between atoms: _210  and  _211
REMARK   90  A    between atoms: _215  and  _216
REMARK   91  A    between atoms: _221  and  _223
REMARK   92  A    between atoms: _223  and  _224
REMARK   93  A    between atoms: _223  and  _226
REMARK   94  A    between atoms: _229  and  _231
REMARK   95  A    between atoms: _231  and  _232
REMARK   96  A    between atoms: _231  and  _234
REMARK   97  A    between atoms: _234  and  _235
REMARK   98  A    between atoms: _240  and  _242
REMARK   99  A    between atoms: _242  and  _243
REMARK  100  A    between atoms: _242  and  _245
REMARK  101  A    between atoms: _245  and  _246
REMARK  102  A    between atoms: _249  and  _251
REMARK  103  A    between atoms: _251  and  _252
REMARK  104  A    between atoms: _251  and  _254
REMARK  105  A    between atoms: _254  and  _255
REMARK  106  A    between atoms: _258  and  _260
REMARK  107  A    between atoms: _260  and  _261
REMARK  108  A    between atoms: _263  and  _265
REMARK  109  A    between atoms: _265  and  _266
REMARK  110  A    between atoms: _265  and  _268
REMARK  111  A    between atoms: _268  and  _269
REMARK  112  A    between atoms: _269  and  _270
REMARK  113  A    between atoms: _270  and  _271
REMARK  114  A    between atoms: _280  and  _282
REMARK  115  A    between atoms: _282  and  _283
REMARK  116  A    between atoms: _282  and  _285
REMARK  117  A    between atoms: _285  and  _286
REMARK  118  A    between atoms: _286  and  _287
REMARK  119  A    between atoms: _287  and  _288
REMARK  120  A    between atoms: _297  and  _299
REMARK  121  A    between atoms: _299  and  _300
REMARK  122  A    between atoms: _299  and  _302
REMARK  123  A    between atoms: _302  and  _303
REMARK  124  A    between atoms: _306  and  _308
REMARK  125  A    between atoms: _308  and  _309
REMARK  126  A    between atoms: _308  and  _311
REMARK  127  A    between atoms: _311  and  _312
REMARK  128  A    between atoms: _315  and  _317
REMARK  129  A    between atoms: _317  and  _318
REMARK  130  A    between atoms: _317  and  _320
REMARK  131  A    between atoms: _320  and  _321
REMARK  132  A    between atoms: _324  and  _326
REMARK  133  A    between atoms: _326  and  _327
REMARK  134  A    between atoms: _326  and  _329
REMARK  135  A    between atoms: _329  and  _330
REMARK  136  A    between atoms: _333  and  _335
REMARK  137  A    between atoms: _335  and  _336
REMARK  138  A    between atoms: _338  and  _340
REMARK  139  A    between atoms: _340  and  _341
REMARK  140  A    between atoms: _344  and  _346
REMARK  141  A    between atoms: _346  and  _347
REMARK  142  A    between atoms: _346  and  _349
REMARK  143  A    between atoms: _349  and  _350
REMARK  144  A    between atoms: _353  and  _355
REMARK  145  A    between atoms: _355  and  _356
REMARK  146  A    between atoms: _355  and  _358
REMARK  147  A    between atoms: _358  and  _359
REMARK  148  A    between atoms: _362  and  _364
REMARK  149  A    between atoms: _364  and  _365
REMARK  150  A    between atoms: _364  and  _367
REMARK  151  A    between atoms: _367  and  _368
REMARK  152  A    between atoms: _371  and  _373
REMARK  153  A    between atoms: _373  and  _374
REMARK  154  A    between atoms: _373  and  _376
REMARK  155  A    between atoms: _379  and  _381
REMARK  156  A    between atoms: _381  and  _382
REMARK  157  A    between atoms: _381  and  _384
REMARK  158  A    between atoms: _384  and  _385
REMARK  159  A    between atoms: _388  and  _390
REMARK  160  A    between atoms: _390  and  _391
REMARK  161  A    between atoms: _390  and  _393
REMARK  162  A    between atoms: _393  and  _394
REMARK  163  A    between atoms: _394  and  _395
REMARK  164  A    between atoms: _395  and  _396
REMARK  165  A    between atoms: _396  and  _397
REMARK  166  A    between atoms: _401  and  _403
REMARK  167  A    between atoms: _403  and  _404
REMARK  168  A    between atoms: _403  and  _406
REMARK  169  A    between atoms: _406  and  _407
REMARK  170  A    between atoms: _407  and  _408
REMARK  171  A    between atoms: _410  and  _412
REMARK  172  A    between atoms: _412  and  _413
REMARK  173  A    between atoms: _412  and  _415
REMARK  174  A    between atoms: _415  and  _416
REMARK  175  A    between atoms: _419  and  _421
REMARK  176  A    between atoms: _421  and  _422
REMARK  177  A    between atoms: _424  and  _426
REMARK  178  A    between atoms: _426  and  _427
REMARK  179  A    between atoms: _429  and  _431
REMARK  180  A    between atoms: _431  and  _432
REMARK  181  A    between atoms: _431  and  _434
REMARK  182  A    between atoms: _434  and  _435
REMARK  183  A    between atoms: _438  and  _440
REMARK  184  A    between atoms: _440  and  _441
REMARK  185  A    between atoms: _443  and  _445
REMARK  186  A    between atoms: _445  and  _446
REMARK  187  A    between atoms: _448  and  _450
REMARK  188  A    between atoms: _450  and  _451
REMARK  189  A    between atoms: _450  and  _453
REMARK  190  A    between atoms: _453  and  _454
REMARK  191  A    between atoms: _460  and  _462
REMARK  192  A    between atoms: _462  and  _463
REMARK  193  A    between atoms: _462  and  _465
REMARK  194  A    between atoms: _465  and  _466
REMARK  195  A    between atoms: _469  and  _471
REMARK  196  A    between atoms: _471  and  _472
REMARK  197  A    between atoms: _471  and  _474
REMARK  198  A    between atoms: _477  and  _479
REMARK  199  A    between atoms: _479  and  _480
REMARK  200  A    between atoms: _479  and  _482
REMARK  201  A    between atoms: _482  and  _483
REMARK  202  A    between atoms: _487  and  _488
REMARK  203  A    between atoms: _493  and  _495
REMARK  204  A    between atoms: _495  and  _496
REMARK  205  A    between atoms: _495  and  _498
REMARK  206  A    between atoms: _498  and  _499
REMARK  207  A    between atoms: _503  and  _504
REMARK  208  A    between atoms: _509  and  _511
REMARK  209  A    between atoms: _511  and  _512
REMARK  210  A    between atoms: _511  and  _514
REMARK  211  A    between atoms: _517  and  _519
REMARK  212  A    between atoms: _519  and  _520
REMARK  213  A    between atoms: _519  and  _522
REMARK  214  A    between atoms: _522  and  _523
REMARK  215  A    between atoms: _528  and  _530
REMARK  216  A    between atoms: _530  and  _531
REMARK  217  A    between atoms: _530  and  _533
REMARK  218  A    between atoms: _533  and  _534
REMARK  219  A    between atoms: _537  and  _539
REMARK  220  A    between atoms: _539  and  _540
REMARK  221  A    between atoms: _539  and  _542
REMARK  222  A    between atoms: _542  and  _543
REMARK  223  A    between atoms: _546  and  _548
REMARK  224  A    between atoms: _548  and  _549
REMARK  225  A    between atoms: _551  and  _553
REMARK  226  A    between atoms: _553  and  _554
REMARK  227  A    between atoms: _553  and  _556
REMARK  228  A    between atoms: _556  and  _557
REMARK  229  A    between atoms: _557  and  _558
REMARK  230  A    between atoms: _558  and  _559
REMARK  231  A    between atoms: _568  and  _570
REMARK  232  A    between atoms: _570  and  _571
REMARK  233  A    between atoms: _570  and  _573
REMARK  234  A    between atoms: _573  and  _574
REMARK                            x       y       z     vdW  Elec       q    Type
REMARK                         _______ _______ _______ _____ _____    ______ ____
ROOT
ATOM      1  C   ALA A   6      19.955 -21.231 -21.043  0.00  0.00    +0.241 C 
ATOM      2  N   ASP A   7      20.401 -22.398 -20.538  0.00  0.00    -0.297 N 
ATOM      3  H   ASP A   7      19.803 -22.949 -19.890  0.00  0.00    +0.150 HD
ATOM      4  O   ALA A   6      20.597 -20.544 -21.861  0.00  0.00    -0.273 OA
ENDROOT
BRANCH   1   5
ATOM      5  CA  ALA A   6      18.576 -20.781 -20.589  0.00  0.00    +0.149 C 
ATOM      6  CB  ALA A   6      17.487 -20.894 -21.785  0.00  0.00    +0.031 C 
BRANCH   5   9
ATOM      7  C   GLY A   5      18.495 -19.064 -18.830  0.00  0.00    +0.243 C 
ATOM      8  O   GLY A   5      18.233 -19.895 -17.960  0.00  0.00    -0.273 OA
ATOM      9  N   ALA A   6      18.682 -19.388 -20.117  0.00  0.00    -0.297 N 
ATOM     10  H   ALA A   6      18.908 -18.637 -20.801  0.00  0.00    +0.150 HD
BRANCH   7  11
ATOM     11  CA  GLY A   5      18.512 -17.595 -18.466  0.00  0.00    +0.176 C 
BRANCH  11  14
ATOM     12  C   THR A   4      19.979 -16.424 -20.077  0.00  0.00    +0.243 C 
ATOM     13  O   THR A   4      20.989 -16.855 -19.549  0.00  0.00    -0.273 OA
ATOM     14  N   GLY A   5      18.756 -16.717 -19.638  0.00  0.00    -0.295 N 
ATOM     15  H   GLY A   5      17.938 -16.314 -20.137  0.00  0.00    +0.150 HD
BRANCH  12  16
ATOM     16  CA  THR A   4      20.075 -15.544 -21.321  0.00  0.00    +0.176 C 
BRANCH  16  18
ATOM     17  C   ASP A   3      18.251 -16.458 -22.665  0.00  0.00    +0.241 C 
ATOM     18  N   THR A   4      18.760 -15.429 -21.980  0.00  0.00    -0.295 N 
ATOM     19  H   THR A   4      18.225 -14.540 -21.911  0.00  0.00    +0.150 HD
ATOM     20  O   ASP A   3      18.822 -17.567 -22.699  0.00  0.00    -0.273 OA
BRANCH  17  21
ATOM     21  CA  ASP A   3      16.883 -16.225 -23.357  0.00  0.00    +0.160 C 
BRANCH  21  24
ATOM     22  C   LEU A   2      16.414 -14.891 -25.333  0.00  0.00    +0.241 C 
ATOM     23  O   LEU A   2      16.045 -13.930 -24.644  0.00  0.00    -0.273 OA
ATOM     24  N   ASP A   3      16.967 -15.976 -24.807  0.00  0.00    -0.297 N 
ATOM     25  H   ASP A   3      17.462 -16.654 -25.421  0.00  0.00    +0.150 HD
BRANCH  22  26
ATOM     26  CA  LEU A   2      16.274 -14.828 -26.829  0.00  0.00    +0.149 C 
BRANCH  26  29
ATOM     27  C   LEU A   1      14.171 -16.056 -27.050  0.00  0.00    +0.238 C 
ATOM     28  O   LEU A   1      14.740 -17.133 -26.804  0.00  0.00    -0.274 OA
ATOM     29  N   LEU A   2      14.838 -14.900 -27.140  0.00  0.00    -0.297 N 
ATOM     30  H   LEU A   2      14.334 -14.039 -27.434  0.00  0.00    +0.150 HD
BRANCH  27  31
ATOM     31  CA  LEU A   1      12.658 -16.021 -27.238  0.00  0.00    +0.145 C 
BRANCH  31  32
ATOM     32  N   LEU A   1      12.236 -16.946 -28.266  0.00  0.00    -0.238 NA
ATOM     33  H   LEU A   1      12.036 -17.931 -28.000  0.00  0.00    +0.142 HD
ENDBRANCH  31  32
BRANCH  31  34
ATOM     34  CB  LEU A   1      11.954 -16.443 -25.943  0.00  0.00    +0.026 C 
BRANCH  34  35
ATOM     35  CG  LEU A   1      12.140 -15.646 -24.681  0.00  0.00    +0.002 C 
ATOM     36  CD2 LEU A   1      11.371 -16.426 -23.566  0.00  0.00    +0.000 C 
ATOM     37  CD1 LEU A   1      11.549 -14.273 -24.913  0.00  0.00    +0.000 C 
ENDBRANCH  34  35
ENDBRANCH  31  34
ENDBRANCH  27  31
ENDBRANCH  26  29
BRANCH  26  38
ATOM     38  CB  LEU A   2      16.899 -13.524 -27.345  0.00  0.00    +0.029 C 
BRANCH  38  39
ATOM     39  CG  LEU A   2      16.809 -13.316 -28.866  0.00  0.00    +0.002 C 
ATOM     40  CD2 LEU A   2      17.561 -12.035 -29.261  0.00  0.00    +0.000 C 
ATOM     41  CD1 LEU A   2      17.288 -14.533 -29.635  0.00  0.00    +0.000 C 
ENDBRANCH  38  39
ENDBRANCH  26  38
ENDBRANCH  22  26
ENDBRANCH  21  24
BRANCH  21  42
ATOM     42  CB  ASP A   3      15.957 -17.404 -23.144  0.00  0.00    +0.143 C 
BRANCH  42  43
ATOM     43  CG  ASP A   3      15.680 -17.656 -21.669  0.00  0.00    +0.367 C 
ATOM     44  OD2 ASP A   3      16.215 -16.899 -20.817  0.00  0.00    -0.246 OA
ATOM     45  OD1 ASP A   3      14.951 -18.592 -21.424  0.00  0.00    -0.246 OA
ENDBRANCH  42  43
ENDBRANCH  21  42
ENDBRANCH  17  21
ENDBRANCH  16  18
BRANCH  16  46
ATOM     46  CB  THR A   4      20.594 -14.163 -20.945  0.00  0.00    +0.137 C 
ATOM     47  CG2 THR A   4      20.707 -13.325 -22.229  0.00  0.00    +0.034 C 
BRANCH  46  48
ATOM     48  OG1 THR A   4      19.665 -13.513 -20.054  0.00  0.00    -0.382 OA
ATOM     49  HG1 THR A   4      19.561 -14.057 -19.233  0.00  0.00    +0.210 HD
ENDBRANCH  46  48
ENDBRANCH  16  46
ENDBRANCH  12  16
ENDBRANCH  11  14
ENDBRANCH   7  11
ENDBRANCH   5   9
ENDBRANCH   1   5
BRANCH   2  50
ATOM     50  CA  ASP A   7      21.731 -22.887 -20.905  0.00  0.00    +0.160 C 
BRANCH  50  51
ATOM     51  C   ASP A   7      21.727 -23.350 -22.359  0.00  0.00    +0.241 C 
ATOM     52  N   ASP A   8      20.604 -23.954 -22.732  0.00  0.00    -0.297 N 
ATOM     53  H   ASP A   8      19.808 -23.979 -22.063  0.00  0.00    +0.150 HD
ATOM     54  O   ASP A   7      22.723 -23.194 -23.083  0.00  0.00    -0.273 OA
BRANCH  52  55
ATOM     55  CA  ASP A   8      20.436 -24.584 -24.036  0.00  0.00    +0.160 C 
BRANCH  55  56
ATOM     56  C   ASP A   8      19.187 -24.046 -24.761  0.00  0.00    +0.241 C 
ATOM     57  O   ASP A   8      18.362 -23.324 -24.195  0.00  0.00    -0.273 OA
ATOM     58  N   THR A   9      19.069 -24.452 -26.023  0.00  0.00    -0.295 N 
ATOM     59  H   THR A   9      19.785 -25.111 -26.391  0.00  0.00    +0.150 HD
BRANCH  58  60
ATOM     60  CA  THR A   9      18.009 -24.036 -26.916  0.00  0.00    +0.176 C 
BRANCH  60  61
ATOM     61  C   THR A   9      16.950 -25.143 -27.006  0.00  0.00    +0.243 C 
ATOM     62  N   VAL A  10      15.702 -24.799 -26.792  0.00  0.00    -0.297 N 
ATOM     63  H   VAL A  10      15.460 -23.808 -26.591  0.00  0.00    +0.150 HD
ATOM     64  O   THR A   9      17.284 -26.305 -27.261  0.00  0.00    -0.273 OA
BRANCH  62  65
ATOM     65  CA  VAL A  10      14.656 -25.815 -26.838  0.00  0.00    +0.149 C 
BRANCH  65  66
ATOM     66  C   VAL A  10      13.465 -25.267 -27.615  0.00  0.00    +0.241 C 
ATOM     67  O   VAL A  10      13.019 -24.147 -27.349  0.00  0.00    -0.273 OA
ATOM     68  N   LEU A  11      13.032 -26.033 -28.622  0.00  0.00    -0.298 N 
ATOM     69  H   LEU A  11      13.528 -26.928 -28.810  0.00  0.00    +0.150 HD
BRANCH  68  70
ATOM     70  CA  LEU A  11      11.897 -25.677 -29.473  0.00  0.00    +0.137 C 
BRANCH  70  71
ATOM     71  C   LEU A  11      10.749 -26.628 -29.224  0.00  0.00    +0.227 C 
ATOM     72  O   LEU A  11      10.961 -27.780 -28.810  0.00  0.00    -0.286 OA
ENDBRANCH  70  71
BRANCH  70  73
ATOM     73  CB  LEU A  11      12.282 -25.755 -30.947  0.00  0.00    +0.028 C 
BRANCH  73  74
ATOM     74  CG  LEU A  11      13.541 -24.948 -31.275  0.00  0.00    +0.002 C 
ATOM     75  CD2 LEU A  11      13.413 -23.471 -30.883  0.00  0.00    +0.000 C 
ATOM     76  CD1 LEU A  11      13.932 -25.062 -32.745  0.00  0.00    +0.000 C 
ENDBRANCH  73  74
ENDBRANCH  70  73
ENDBRANCH  68  70
ENDBRANCH  65  66
BRANCH  65  77
ATOM     77  CB  VAL A  10      14.244 -26.318 -25.411  0.00  0.00    +0.027 C 
ATOM     78  CG2 VAL A  10      13.746 -25.174 -24.545  0.00  0.00    +0.002 C 
ATOM     79  CG1 VAL A  10      13.156 -27.437 -25.514  0.00  0.00    +0.002 C 
ENDBRANCH  65  77
ENDBRANCH  62  65
ENDBRANCH  60  61
BRANCH  60  80
ATOM     80  CB  THR A   9      18.614 -23.782 -28.315  0.00  0.00    +0.137 C 
ATOM     81  CG2 THR A   9      17.521 -23.534 -29.376  0.00  0.00    +0.034 C 
BRANCH  80  82
ATOM     82  OG1 THR A   9      19.433 -22.615 -28.227  0.00  0.00    -0.382 OA
ATOM     83  HG1 THR A   9      20.151 -22.767 -27.563  0.00  0.00    +0.210 HD
ENDBRANCH  80  82
ENDBRANCH  60  80
ENDBRANCH  58  60
ENDBRANCH  55  56
BRANCH  55  84
ATOM     84  CB  ASP A   8      20.303 -26.116 -23.866  0.00  0.00    +0.143 C 
BRANCH  84  85
ATOM     85  CG  ASP A   8      21.350 -26.720 -22.917  0.00  0.00    +0.367 C 
ATOM     86  OD2 ASP A   8      20.979 -27.376 -21.926  0.00  0.00    -0.246 OA
ATOM     87  OD1 ASP A   8      22.552 -26.582 -23.190  0.00  0.00    -0.246 OA
ENDBRANCH  84  85
ENDBRANCH  55  84
ENDBRANCH  52  55
ENDBRANCH  50  51
BRANCH  50  88
ATOM     88  CB  ASP A   7      22.128 -24.081 -20.020  0.00  0.00    +0.143 C 
BRANCH  88  89
ATOM     89  CG  ASP A   7      22.113 -23.757 -18.528  0.00  0.00    +0.367 C 
ATOM     90  OD2 ASP A   7      21.968 -24.733 -17.758  0.00  0.00    -0.246 OA
ATOM     91  OD1 ASP A   7      22.268 -22.571 -18.134  0.00  0.00    -0.246 OA
ENDBRANCH  88  89
ENDBRANCH  50  88
ENDBRANCH   2  50
TORSDOF 39
REMARK  Name = ../refined-set-2016/2o4s/2o4s_pocket.pdb
REMARK  234 active torsions:
REMARK  status: ('A' for Active; 'I' for Inactive)
REMARK    1  A    between atoms: _1  and  _3
REMARK    2  A    between atoms: _3  and  _4
REMARK    3  A    between atoms: _3  and  _6
REMARK    4  A    between atoms: _6  and  _7
REMARK    5  A    between atoms: _7  and  _8
REMARK    6  A    between atoms: _8  and  _9
REMARK    7  A    between atoms: _18  and  _20
REMARK    8  A    between atoms: _20  and  _21
REMARK    9  A    between atoms: _20  and  _23
REMARK   10  A    between atoms: _23  and  _24
REMARK   11  A    between atoms: _27  and  _29
REMARK   12  A    between atoms: _29  and  _30
REMARK   13  A    between atoms: _29  and  _32
REMARK   14  A    between atoms: _32  and  _33
REMARK   15  A    between atoms: _36  and  _38
REMARK   16  A    between atoms: _38  and  _39
REMARK   17  A    between atoms: _38  and  _41
REMARK   18  A    between atoms: _41  and  _42
REMARK   19  A    between atoms: _45  and  _47
REMARK   20  A    between atoms: _47  and  _48
REMARK   21  A    between atoms: _47  and  _50
REMARK   22  A    between atoms: _50  and  _51
REMARK   23  A    between atoms: _54  and  _56
REMARK   24  A    between atoms: _56  and  _57
REMARK   25  A    between atoms: _59  and  _61
REMARK   26  A    between atoms: _61  and  _62
REMARK   27  A    between atoms: _65  and  _67
REMARK   28  A    between atoms: _67  and  _68
REMARK   29  A    between atoms: _67  and  _70
REMARK   30  A    between atoms: _70  and  _71
REMARK   31  A    between atoms: _74  and  _76
REMARK   32  A    between atoms: _76  and  _77
REMARK   33  A    between atoms: _76  and  _79
REMARK   34  A    between atoms: _79  and  _80
REMARK   35  A    between atoms: _83  and  _85
REMARK   36  A    between atoms: _85  and  _86
REMARK   37  A    between atoms: _85  and  _88
REMARK   38  A    between atoms: _88  and  _89
REMARK   39  A    between atoms: _92  and  _94
REMARK   40  A    between atoms: _94  and  _95
REMARK   41  A    between atoms: _94  and  _97
REMARK   42  A    between atoms: _100  and  _102
REMARK   43  A    between atoms: _102  and  _103
REMARK   44  A    between atoms: _102  and  _105
REMARK   45  A    between atoms: _105  and  _106
REMARK   46  A    between atoms: _106  and  _107
REMARK   47  A    between atoms: _107  and  _108
REMARK   48  A    between atoms: _108  and  _109
REMARK   49  A    between atoms: _113  and  _115
REMARK   50  A    between atoms: _115  and  _116
REMARK   51  A    between atoms: _115  and  _118
REMARK   52  A    between atoms: _118  and  _119
REMARK   53  A    between atoms: _119  and  _120
REMARK   54  A    between atoms: _122  and  _124
REMARK   55  A    between atoms: _124  and  _125
REMARK   56  A    between atoms: _124  and  _127
REMARK   57  A    between atoms: _127  and  _128
REMARK   58  A    between atoms: _131  and  _133
REMARK   59  A    between atoms: _133  and  _134
REMARK   60  A    between atoms: _136  and  _138
REMARK   61  A    between atoms: _138  and  _139
REMARK   62  A    between atoms: _141  and  _143
REMARK   63  A    between atoms: _143  and  _144
REMARK   64  A    between atoms: _143  and  _146
REMARK   65  A    between atoms: _146  and  _147
REMARK   66  A    between atoms: _150  and  _152
REMARK   67  A    between atoms: _152  and  _153
REMARK   68  A    between atoms: _155  and  _157
REMARK   69  A    between atoms: _157  and  _158
REMARK   70  A    between atoms: _160  and  _162
REMARK   71  A    between atoms: _162  and  _163
REMARK   72  A    between atoms: _162  and  _165
REMARK   73  A    between atoms: _165  and  _166
REMARK   74  A    between atoms: _172  and  _174
REMARK   75  A    between atoms: _174  and  _175
REMARK   76  A    between atoms: _174  and  _177
REMARK   77  A    between atoms: _177  and  _178
REMARK   78  A    between atoms: _181  and  _183
REMARK   79  A    between atoms: _183  and  _184
REMARK   80  A    between atoms: _183  and  _186
REMARK   81  A    between atoms: _189  and  _191
REMARK   82  A    between atoms: _191  and  _192
REMARK   83  A    between atoms: _191  and  _194
REMARK   84  A    between atoms: _194  and  _195
REMARK   85  A    between atoms: _199  and  _200
REMARK   86  A    between atoms: _205  and  _207
REMARK   87  A    between atoms: _207  and  _208
REMARK   88  A    between atoms: _207  and  _210
REMARK   89  A    between atoms: _210  and  _211
REMARK   90  A    between atoms: _215  and  _216
REMARK   91  A    between atoms: _221  and  _223
REMARK   92  A    between atoms: _223  and  _224
REMARK   93  A    between atoms: _223  and  _226
REMARK   94  A    between atoms: _229  and  _231
REMARK   95  A    between atoms: _231  and  _232
REMARK   96  A    between atoms: _231  and  _234
REMARK   97  A    between atoms: _234  and  _235
REMARK   98  A    between atoms: _240  and  _242
REMARK   99  A    between atoms: _242  and  _243
REMARK  100  A    between atoms: _242  and  _245
REMARK  101  A    between atoms: _245  and  _246
REMARK  102  A    between atoms: _249  and  _251
REMARK  103  A    between atoms: _251  and  _252
REMARK  104  A    between atoms: _251  and  _254
REMARK  105  A    between atoms: _254  and  _255
REMARK  106  A    between atoms: _258  and  _260
REMARK  107  A    between atoms: _260  and  _261
REMARK  108  A    between atoms: _263  and  _265
REMARK  109  A    between atoms: _265  and  _266
REMARK  110  A    between atoms: _265  and  _268
REMARK  111  A    between atoms: _268  and  _269
REMARK  112  A    between atoms: _269  and  _270
REMARK  113  A    between atoms: _270  and  _271
REMARK  114  A    between atoms: _280  and  _282
REMARK  115  A    between atoms: _282  and  _283
REMARK  116  A    between atoms: _282  and  _285
REMARK  117  A    between atoms: _285  and  _286
REMARK  118  A    between atoms: _286  and  _287
REMARK  119  A    between atoms: _287  and  _288
REMARK  120  A    between atoms: _297  and  _299
REMARK  121  A    between atoms: _299  and  _300
REMARK  122  A    between atoms: _299  and  _302
REMARK  123  A    between atoms: _302  and  _303
REMARK  124  A    between atoms: _306  and  _308
REMARK  125  A    between atoms: _308  and  _309
REMARK  126  A    between atoms: _308  and  _311
REMARK  127  A    between atoms: _311  and  _312
REMARK  128  A    between atoms: _315  and  _317
REMARK  129  A    between atoms: _317  and  _318
REMARK  130  A    between atoms: _317  and  _320
REMARK  131  A    between atoms: _320  and  _321
REMARK  132  A    between atoms: _324  and  _326
REMARK  133  A    between atoms: _326  and  _327
REMARK  134  A    between atoms: _326  and  _329
REMARK  135  A    between atoms: _329  and  _330
REMARK  136  A    between atoms: _333  and  _335
REMARK  137  A    between atoms: _335  and  _336
REMARK  138  A    between atoms: _338  and  _340
REMARK  139  A    between atoms: _340  and  _341
REMARK  140  A    between atoms: _344  and  _346
REMARK  141  A    between atoms: _346  and  _347
REMARK  142  A    between atoms: _346  and  _349
REMARK  143  A    between atoms: _349  and  _350
REMARK  144  A    between atoms: _353  and  _355
REMARK  145  A    between atoms: _355  and  _356
REMARK  146  A    between atoms: _355  and  _358
REMARK  147  A    between atoms: _358  and  _359
REMARK  148  A    between atoms: _362  and  _364
REMARK  149  A    between atoms: _364  and  _365
REMARK  150  A    between atoms: _364  and  _367
REMARK  151  A    between atoms: _367  and  _368
REMARK  152  A    between atoms: _371  and  _373
REMARK  153  A    between atoms: _373  and  _374
REMARK  154  A    between atoms: _373  and  _376
REMARK  155  A    between atoms: _379  and  _381
REMARK  156  A    between atoms: _381  and  _382
REMARK  157  A    between atoms: _381  and  _384
REMARK  158  A    between atoms: _384  and  _385
REMARK  159  A    between atoms: _388  and  _390
REMARK  160  A    between atoms: _390  and  _391
REMARK  161  A    between atoms: _390  and  _393
REMARK  162  A    between atoms: _393  and  _394
REMARK  163  A    between atoms: _394  and  _395
REMARK  164  A    between atoms: _395  and  _396
REMARK  165  A    between atoms: _396  and  _397
REMARK  166  A    between atoms: _401  and  _403
REMARK  167  A    between atoms: _403  and  _404
REMARK  168  A    between atoms: _403  and  _406
REMARK  169  A    between atoms: _406  and  _407
REMARK  170  A    between atoms: _407  and  _408
REMARK  171  A    between atoms: _410  and  _412
REMARK  172  A    between atoms: _412  and  _413
REMARK  173  A    between atoms: _412  and  _415
REMARK  174  A    between atoms: _415  and  _416
REMARK  175  A    between atoms: _419  and  _421
REMARK  176  A    between atoms: _421  and  _422
REMARK  177  A    between atoms: _424  and  _426
REMARK  178  A    between atoms: _426  and  _427
REMARK  179  A    between atoms: _429  and  _431
REMARK  180  A    between atoms: _431  and  _432
REMARK  181  A    between atoms: _431  and  _434
REMARK  182  A    between atoms: _434  and  _435
REMARK  183  A    between atoms: _438  and  _440
REMARK  184  A    between atoms: _440  and  _441
REMARK  185  A    between atoms: _443  and  _445
REMARK  186  A    between atoms: _445  and  _446
REMARK  187  A    between atoms: _448  and  _450
REMARK  188  A    between atoms: _450  and  _451
REMARK  189  A    between atoms: _450  and  _453
REMARK  190  A    between atoms: _453  and  _454
REMARK  191  A    between atoms: _460  and  _462
REMARK  192  A    between atoms: _462  and  _463
REMARK  193  A    between atoms: _462  and  _465
REMARK  194  A    between atoms: _465  and  _466
REMARK  195  A    between atoms: _469  and  _471
REMARK  196  A    between atoms: _471  and  _472
REMARK  197  A    between atoms: _471  and  _474
REMARK  198  A    between atoms: _477  and  _479
REMARK  199  A    between atoms: _479  and  _480
REMARK  200  A    between atoms: _479  and  _482
REMARK  201  A    between atoms: _482  and  _483
REMARK  202  A    between atoms: _487  and  _488
REMARK  203  A    between atoms: _493  and  _495
REMARK  204  A    between atoms: _495  and  _496
REMARK  205  A    between atoms: _495  and  _498
REMARK  206  A    between atoms: _498  and  _499
REMARK  207  A    between atoms: _503  and  _504
REMARK  208  A    between atoms: _509  and  _511
REMARK  209  A    between atoms: _511  and  _512
REMARK  210  A    between atoms: _511  and  _514
REMARK  211  A    between atoms: _517  and  _519
REMARK  212  A    between atoms: _519  and  _520
REMARK  213  A    between atoms: _519  and  _522
REMARK  214  A    between atoms: _522  and  _523
REMARK  215  A    between atoms: _528  and  _530
REMARK  216  A    between atoms: _530  and  _531
REMARK  217  A    between atoms: _530  and  _533
REMARK  218  A    between atoms: _533  and  _534
REMARK  219  A    between atoms: _537  and  _539
REMARK  220  A    between atoms: _539  and  _540
REMARK  221  A    between atoms: _539  and  _542
REMARK  222  A    between atoms: _542  and  _543
REMARK  223  A    between atoms: _546  and  _548
REMARK  224  A    between atoms: _548  and  _549
REMARK  225  A    between atoms: _551  and  _553
REMARK  226  A    between atoms: _553  and  _554
REMARK  227  A    between atoms: _553  and  _556
REMARK  228  A    between atoms: _556  and  _557
REMARK  229  A    between atoms: _557  and  _558
REMARK  230  A    between atoms: _558  and  _559
REMARK  231  A    between atoms: _568  and  _570
REMARK  232  A    between atoms: _570  and  _571
REMARK  233  A    between atoms: _570  and  _573
REMARK  234  A    between atoms: _573  and  _574
REMARK                            x       y       z     vdW  Elec       q    Type
REMARK                         _______ _______ _______ _____ _____    ______ ____
ROOT
ATOM      1  C   GLY A   5      11.820 -24.379 -14.373  0.00  0.00    +0.243 C 
ATOM      2  O   GLY A   5      12.058 -24.985 -13.306  0.00  0.00    -0.273 OA
ATOM      3  N   ILE A   6      10.942 -23.381 -14.454  0.00  0.00    -0.297 N 
ATOM      4  H   ILE A   6      10.669 -23.021 -15.391  0.00  0.00    +0.150 HD
ENDROOT
BRANCH   3   5
ATOM      5  CA  ILE A   6      10.350 -22.777 -13.256  0.00  0.00    +0.149 C 
BRANCH   5   6
ATOM      6  C   ILE A   6       9.599 -23.794 -12.375  0.00  0.00    +0.241 C 
ATOM      7  O   ILE A   6       9.651 -23.731 -11.150  0.00  0.00    -0.273 OA
ATOM      8  N   GLY A   7       8.967 -24.780 -13.011  0.00  0.00    -0.295 N 
ATOM      9  H   GLY A   7       9.083 -24.876 -14.040  0.00  0.00    +0.150 HD
BRANCH   8  10
ATOM     10  CA  GLY A   7       8.108 -25.737 -12.292  0.00  0.00    +0.176 C 
BRANCH  10  11
ATOM     11  C   GLY A   7       8.740 -27.108 -12.077  0.00  0.00    +0.243 C 
ATOM     12  O   GLY A   7       8.142 -27.984 -11.452  0.00  0.00    -0.273 OA
ATOM     13  N   GLY A   8       9.964 -27.293 -12.582  0.00  0.00    -0.295 N 
ATOM     14  H   GLY A   8      10.461 -26.493 -13.024  0.00  0.00    +0.150 HD
BRANCH  13  15
ATOM     15  CA  GLY A   8      10.615 -28.597 -12.524  0.00  0.00    +0.176 C 
BRANCH  15  16
ATOM     16  C   GLY A   8      11.225 -28.976 -13.861  0.00  0.00    +0.243 C 
ATOM     17  N   PHE A   9      11.569 -30.258 -14.000  0.00  0.00    -0.297 N 
ATOM     18  H   PHE A   9      11.296 -30.914 -13.240  0.00  0.00    +0.150 HD
ATOM     19  O   GLY A   8      11.371 -28.124 -14.742  0.00  0.00    -0.273 OA
BRANCH  17  20
ATOM     20  CA  PHE A   9      12.304 -30.813 -15.145  0.00  0.00    +0.153 C 
BRANCH  20  21
ATOM     21  C   PHE A   9      11.424 -31.483 -16.192  0.00  0.00    +0.241 C 
ATOM     22  O   PHE A   9      10.425 -32.140 -15.868  0.00  0.00    -0.273 OA
ATOM     23  N   ILE A  10      11.808 -31.335 -17.456  0.00  0.00    -0.298 N 
ATOM     24  H   ILE A  10      12.590 -30.685 -17.675  0.00  0.00    +0.150 HD
BRANCH  23  25
ATOM     25  CA  ILE A  10      11.159 -32.062 -18.546  0.00  0.00    +0.137 C 
BRANCH  25  26
ATOM     26  C   ILE A  10      12.190 -32.847 -19.363  0.00  0.00    +0.227 C 
ATOM     27  O   ILE A  10      13.387 -32.513 -19.394  0.00  0.00    -0.286 OA
ENDBRANCH  25  26
BRANCH  25  28
ATOM     28  CB  ILE A  10      10.321 -31.140 -19.481  0.00  0.00    +0.026 C 
ATOM     29  CG2 ILE A  10       9.196 -30.424 -18.696  0.00  0.00    +0.002 C 
BRANCH  28  30
ATOM     30  CG1 ILE A  10      11.212 -30.135 -20.224  0.00  0.00    +0.002 C 
ATOM     31  CD1 ILE A  10      10.558 -29.450 -21.418  0.00  0.00    +0.000 C 
ENDBRANCH  28  30
ENDBRANCH  25  28
ENDBRANCH  23  25
ENDBRANCH  20  21
BRANCH  20  32
ATOM     32  CB  PHE A   9      13.347 -31.827 -14.644  0.00  0.00    +0.055 C 
BRANCH  32  33
ATOM     33  CG  PHE A   9      14.528 -31.194 -13.962  0.00  0.00    -0.020 A 
ATOM     34  CD2 PHE A   9      14.456 -30.803 -12.635  0.00  0.00    -0.004 A 
ATOM     35  CE2 PHE A   9      15.546 -30.211 -12.007  0.00  0.00    -0.000 A 
ATOM     36  CZ  PHE A   9      16.719 -29.996 -12.711  0.00  0.00    -0.000 A 
ATOM     37  CE1 PHE A   9      16.815 -30.389 -14.035  0.00  0.00    -0.000 A 
ATOM     38  CD1 PHE A   9      15.713 -30.984 -14.661  0.00  0.00    -0.004 A 
ENDBRANCH  32  33
ENDBRANCH  20  32
ENDBRANCH  17  20
ENDBRANCH  15  16
ENDBRANCH  13  15
ENDBRANCH  10  11
ENDBRANCH   8  10
ENDBRANCH   5   6
BRANCH   5  39
ATOM     39  CB  ILE A   6       9.472 -21.531 -13.622  0.00  0.00    +0.027 C 
ATOM     40  CG2 ILE A   6       8.196 -21.917 -14.338  0.00  0.00    +0.002 C 
BRANCH  39  41
ATOM     41  CG1 ILE A   6       9.189 -20.671 -12.373  0.00  0.00    +0.002 C 
ATOM     42  CD1 ILE A   6      10.497 -20.160 -11.680  0.00  0.00    +0.000 C 
ENDBRANCH  39  41
ENDBRANCH   5  39
ENDBRANCH   3   5
BRANCH   1  43
ATOM     43  CA  GLY A   5      12.511 -24.749 -15.674  0.00  0.00    +0.176 C 
BRANCH  43  45
ATOM     44  C   GLY A   4      14.405 -26.305 -15.843  0.00  0.00    +0.243 C 
ATOM     45  N   GLY A   5      13.100 -26.075 -15.632  0.00  0.00    -0.295 N 
ATOM     46  H   GLY A   5      12.481 -26.886 -15.429  0.00  0.00    +0.150 HD
ATOM     47  O   GLY A   4      15.220 -25.443 -16.225  0.00  0.00    -0.273 OA
BRANCH  44  48
ATOM     48  CA  GLY A   4      14.866 -27.720 -15.598  0.00  0.00    +0.176 C 
BRANCH  48  50
ATOM     49  C   ILE A   3      15.155 -29.177 -17.522  0.00  0.00    +0.241 C 
ATOM     50  N   GLY A   4      15.646 -28.257 -16.698  0.00  0.00    -0.295 N 
ATOM     51  H   GLY A   4      16.616 -27.912 -16.845  0.00  0.00    +0.150 HD
ATOM     52  O   ILE A   3      14.022 -29.716 -17.411  0.00  0.00    -0.273 OA
BRANCH  49  53
ATOM     53  CA  ILE A   3      16.121 -29.620 -18.590  0.00  0.00    +0.149 C 
BRANCH  53  56
ATOM     54  C   MET A   2      16.825 -31.914 -18.884  0.00  0.00    +0.241 C 
ATOM     55  O   MET A   2      18.019 -31.630 -18.791  0.00  0.00    -0.273 OA
ATOM     56  N   ILE A   3      15.862 -31.002 -18.914  0.00  0.00    -0.297 N 
ATOM     57  H   ILE A   3      14.898 -31.290 -19.177  0.00  0.00    +0.150 HD
BRANCH  54  58
ATOM     58  CA  MET A   2      16.377 -33.359 -19.070  0.00  0.00    +0.149 C 
BRANCH  58  60
ATOM     59  C   LYS A   1      17.072 -34.476 -21.104  0.00  0.00    +0.238 C 
ATOM     60  N   MET A   2      17.377 -34.054 -19.885  0.00  0.00    -0.297 N 
ATOM     61  H   MET A   2      18.331 -34.217 -19.505  0.00  0.00    +0.150 HD
ATOM     62  O   LYS A   1      15.928 -34.485 -21.529  0.00  0.00    -0.274 OA
BRANCH  59  63
ATOM     63  CA  LYS A   1      18.234 -34.877 -21.996  0.00  0.00    +0.145 C 
BRANCH  63  64
ATOM     64  N   LYS A   1      17.794 -35.947 -22.891  0.00  0.00    -0.238 NA
ATOM     65  H   LYS A   1      16.801 -35.978 -23.200  0.00  0.00    +0.142 HD
ENDBRANCH  63  64
BRANCH  63  66
ATOM     66  CB  LYS A   1      18.724 -33.685 -22.805  0.00  0.00    +0.026 C 
BRANCH  66  67
ATOM     67  CG  LYS A   1      19.224 -32.579 -21.884  0.00  0.00    -0.000 C 
BRANCH  67  68
ATOM     68  CD  LYS A   1      20.505 -31.968 -22.295  0.00  0.00    -0.024 C 
BRANCH  68  69
ATOM     69  CE  LYS A   1      20.842 -30.834 -21.345  0.00  0.00    -0.086 C 
BRANCH  69  70
ATOM     70  NZ  LYS A   1      22.263 -30.532 -21.406  0.00  0.00    +0.380 N 
ATOM     71  HZ1 LYS A   1      22.479 -29.754 -20.751  0.00  0.00    -0.089 HD
ATOM     72  HZ2 LYS A   1      22.807 -31.376 -21.136  0.00  0.00    -0.089 HD
ATOM     73  HZ3 LYS A   1      22.515 -30.251 -22.375  0.00  0.00    -0.089 HD
ENDBRANCH  69  70
ENDBRANCH  68  69
ENDBRANCH  67  68
ENDBRANCH  66  67
ENDBRANCH  63  66
ENDBRANCH  59  63
ENDBRANCH  58  60
BRANCH  58  74
ATOM     74  CB  MET A   2      16.171 -34.054 -17.731  0.00  0.00    +0.041 C 
BRANCH  74  75
ATOM     75  CG  MET A   2      15.661 -35.502 -17.881  0.00  0.00    +0.060 C 
BRANCH  75  76
ATOM     76  SD  MET A   2      15.143 -36.259 -16.341  0.00  0.00    -0.139 S 
ATOM     77  CE  MET A   2      13.550 -35.464 -16.091  0.00  0.00    +0.069 C 
ENDBRANCH  75  76
ENDBRANCH  74  75
ENDBRANCH  58  74
ENDBRANCH  54  58
ENDBRANCH  53  56
BRANCH  53  78
ATOM     78  CB  ILE A   3      16.094 -28.663 -19.823  0.00  0.00    +0.027 C 
ATOM     79  CG2 ILE A   3      17.254 -29.016 -20.781  0.00  0.00    +0.002 C 
BRANCH  78  80
ATOM     80  CG1 ILE A   3      14.724 -28.677 -20.517  0.00  0.00    +0.002 C 
ATOM     81  CD1 ILE A   3      14.660 -27.714 -21.701  0.00  0.00    +0.000 C 
ENDBRANCH  78  80
ENDBRANCH  53  78
ENDBRANCH  49  53
ENDBRANCH  48  50
ENDBRANCH  44  48
ENDBRANCH  43  45
ENDBRANCH   1  43
TORSDOF 36
REMARK  Name = ../refined-set-2016/2o4s/2o4s_pocket.pdb
REMARK  234 active torsions:
REMARK  status: ('A' for Active; 'I' for Inactive)
REMARK    1  A    between atoms: _1  and  _3
REMARK    2  A    between atoms: _3  and  _4
REMARK    3  A    between atoms: _3  and  _6
REMARK    4  A    between atoms: _6  and  _7
REMARK    5  A    between atoms: _7  and  _8
REMARK    6  A    between atoms: _8  and  _9
REMARK    7  A    between atoms: _18  and  _20
REMARK    8  A    between atoms: _20  and  _21
REMARK    9  A    between atoms: _20  and  _23
REMARK   10  A    between atoms: _23  and  _24
REMARK   11  A    between atoms: _27  and  _29
REMARK   12  A    between atoms: _29  and  _30
REMARK   13  A    between atoms: _29  and  _32
REMARK   14  A    between atoms: _32  and  _33
REMARK   15  A    between atoms: _36  and  _38
REMARK   16  A    between atoms: _38  and  _39
REMARK   17  A    between atoms: _38  and  _41
REMARK   18  A    between atoms: _41  and  _42
REMARK   19  A    between atoms: _45  and  _47
REMARK   20  A    between atoms: _47  and  _48
REMARK   21  A    between atoms: _47  and  _50
REMARK   22  A    between atoms: _50  and  _51
REMARK   23  A    between atoms: _54  and  _56
REMARK   24  A    between atoms: _56  and  _57
REMARK   25  A    between atoms: _59  and  _61
REMARK   26  A    between atoms: _61  and  _62
REMARK   27  A    between atoms: _65  and  _67
REMARK   28  A    between atoms: _67  and  _68
REMARK   29  A    between atoms: _67  and  _70
REMARK   30  A    between atoms: _70  and  _71
REMARK   31  A    between atoms: _74  and  _76
REMARK   32  A    between atoms: _76  and  _77
REMARK   33  A    between atoms: _76  and  _79
REMARK   34  A    between atoms: _79  and  _80
REMARK   35  A    between atoms: _83  and  _85
REMARK   36  A    between atoms: _85  and  _86
REMARK   37  A    between atoms: _85  and  _88
REMARK   38  A    between atoms: _88  and  _89
REMARK   39  A    between atoms: _92  and  _94
REMARK   40  A    between atoms: _94  and  _95
REMARK   41  A    between atoms: _94  and  _97
REMARK   42  A    between atoms: _100  and  _102
REMARK   43  A    between atoms: _102  and  _103
REMARK   44  A    between atoms: _102  and  _105
REMARK   45  A    between atoms: _105  and  _106
REMARK   46  A    between atoms: _106  and  _107
REMARK   47  A    between atoms: _107  and  _108
REMARK   48  A    between atoms: _108  and  _109
REMARK   49  A    between atoms: _113  and  _115
REMARK   50  A    between atoms: _115  and  _116
REMARK   51  A    between atoms: _115  and  _118
REMARK   52  A    between atoms: _118  and  _119
REMARK   53  A    between atoms: _119  and  _120
REMARK   54  A    between atoms: _122  and  _124
REMARK   55  A    between atoms: _124  and  _125
REMARK   56  A    between atoms: _124  and  _127
REMARK   57  A    between atoms: _127  and  _128
REMARK   58  A    between atoms: _131  and  _133
REMARK   59  A    between atoms: _133  and  _134
REMARK   60  A    between atoms: _136  and  _138
REMARK   61  A    between atoms: _138  and  _139
REMARK   62  A    between atoms: _141  and  _143
REMARK   63  A    between atoms: _143  and  _144
REMARK   64  A    between atoms: _143  and  _146
REMARK   65  A    between atoms: _146  and  _147
REMARK   66  A    between atoms: _150  and  _152
REMARK   67  A    between atoms: _152  and  _153
REMARK   68  A    between atoms: _155  and  _157
REMARK   69  A    between atoms: _157  and  _158
REMARK   70  A    between atoms: _160  and  _162
REMARK   71  A    between atoms: _162  and  _163
REMARK   72  A    between atoms: _162  and  _165
REMARK   73  A    between atoms: _165  and  _166
REMARK   74  A    between atoms: _172  and  _174
REMARK   75  A    between atoms: _174  and  _175
REMARK   76  A    between atoms: _174  and  _177
REMARK   77  A    between atoms: _177  and  _178
REMARK   78  A    between atoms: _181  and  _183
REMARK   79  A    between atoms: _183  and  _184
REMARK   80  A    between atoms: _183  and  _186
REMARK   81  A    between atoms: _189  and  _191
REMARK   82  A    between atoms: _191  and  _192
REMARK   83  A    between atoms: _191  and  _194
REMARK   84  A    between atoms: _194  and  _195
REMARK   85  A    between atoms: _199  and  _200
REMARK   86  A    between atoms: _205  and  _207
REMARK   87  A    between atoms: _207  and  _208
REMARK   88  A    between atoms: _207  and  _210
REMARK   89  A    between atoms: _210  and  _211
REMARK   90  A    between atoms: _215  and  _216
REMARK   91  A    between atoms: _221  and  _223
REMARK   92  A    between atoms: _223  and  _224
REMARK   93  A    between atoms: _223  and  _226
REMARK   94  A    between atoms: _229  and  _231
REMARK   95  A    between atoms: _231  and  _232
REMARK   96  A    between atoms: _231  and  _234
REMARK   97  A    between atoms: _234  and  _235
REMARK   98  A    between atoms: _240  and  _242
REMARK   99  A    between atoms: _242  and  _243
REMARK  100  A    between atoms: _242  and  _245
REMARK  101  A    between atoms: _245  and  _246
REMARK  102  A    between atoms: _249  and  _251
REMARK  103  A    between atoms: _251  and  _252
REMARK  104  A    between atoms: _251  and  _254
REMARK  105  A    between atoms: _254  and  _255
REMARK  106  A    between atoms: _258  and  _260
REMARK  107  A    between atoms: _260  and  _261
REMARK  108  A    between atoms: _263  and  _265
REMARK  109  A    between atoms: _265  and  _266
REMARK  110  A    between atoms: _265  and  _268
REMARK  111  A    between atoms: _268  and  _269
REMARK  112  A    between atoms: _269  and  _270
REMARK  113  A    between atoms: _270  and  _271
REMARK  114  A    between atoms: _280  and  _282
REMARK  115  A    between atoms: _282  and  _283
REMARK  116  A    between atoms: _282  and  _285
REMARK  117  A    between atoms: _285  and  _286
REMARK  118  A    between atoms: _286  and  _287
REMARK  119  A    between atoms: _287  and  _288
REMARK  120  A    between atoms: _297  and  _299
REMARK  121  A    between atoms: _299  and  _300
REMARK  122  A    between atoms: _299  and  _302
REMARK  123  A    between atoms: _302  and  _303
REMARK  124  A    between atoms: _306  and  _308
REMARK  125  A    between atoms: _308  and  _309
REMARK  126  A    between atoms: _308  and  _311
REMARK  127  A    between atoms: _311  and  _312
REMARK  128  A    between atoms: _315  and  _317
REMARK  129  A    between atoms: _317  and  _318
REMARK  130  A    between atoms: _317  and  _320
REMARK  131  A    between atoms: _320  and  _321
REMARK  132  A    between atoms: _324  and  _326
REMARK  133  A    between atoms: _326  and  _327
REMARK  134  A    between atoms: _326  and  _329
REMARK  135  A    between atoms: _329  and  _330
REMARK  136  A    between atoms: _333  and  _335
REMARK  137  A    between atoms: _335  and  _336
REMARK  138  A    between atoms: _338  and  _340
REMARK  139  A    between atoms: _340  and  _341
REMARK  140  A    between atoms: _344  and  _346
REMARK  141  A    between atoms: _346  and  _347
REMARK  142  A    between atoms: _346  and  _349
REMARK  143  A    between atoms: _349  and  _350
REMARK  144  A    between atoms: _353  and  _355
REMARK  145  A    between atoms: _355  and  _356
REMARK  146  A    between atoms: _355  and  _358
REMARK  147  A    between atoms: _358  and  _359
REMARK  148  A    between atoms: _362  and  _364
REMARK  149  A    between atoms: _364  and  _365
REMARK  150  A    between atoms: _364  and  _367
REMARK  151  A    between atoms: _367  and  _368
REMARK  152  A    between atoms: _371  and  _373
REMARK  153  A    between atoms: _373  and  _374
REMARK  154  A    between atoms: _373  and  _376
REMARK  155  A    between atoms: _379  and  _381
REMARK  156  A    between atoms: _381  and  _382
REMARK  157  A    between atoms: _381  and  _384
REMARK  158  A    between atoms: _384  and  _385
REMARK  159  A    between atoms: _388  and  _390
REMARK  160  A    between atoms: _390  and  _391
REMARK  161  A    between atoms: _390  and  _393
REMARK  162  A    between atoms: _393  and  _394
REMARK  163  A    between atoms: _394  and  _395
REMARK  164  A    between atoms: _395  and  _396
REMARK  165  A    between atoms: _396  and  _397
REMARK  166  A    between atoms: _401  and  _403
REMARK  167  A    between atoms: _403  and  _404
REMARK  168  A    between atoms: _403  and  _406
REMARK  169  A    between atoms: _406  and  _407
REMARK  170  A    between atoms: _407  and  _408
REMARK  171  A    between atoms: _410  and  _412
REMARK  172  A    between atoms: _412  and  _413
REMARK  173  A    between atoms: _412  and  _415
REMARK  174  A    between atoms: _415  and  _416
REMARK  175  A    between atoms: _419  and  _421
REMARK  176  A    between atoms: _421  and  _422
REMARK  177  A    between atoms: _424  and  _426
REMARK  178  A    between atoms: _426  and  _427
REMARK  179  A    between atoms: _429  and  _431
REMARK  180  A    between atoms: _431  and  _432
REMARK  181  A    between atoms: _431  and  _434
REMARK  182  A    between atoms: _434  and  _435
REMARK  183  A    between atoms: _438  and  _440
REMARK  184  A    between atoms: _440  and  _441
REMARK  185  A    between atoms: _443  and  _445
REMARK  186  A    between atoms: _445  and  _446
REMARK  187  A    between atoms: _448  and  _450
REMARK  188  A    between atoms: _450  and  _451
REMARK  189  A    between atoms: _450  and  _453
REMARK  190  A    between atoms: _453  and  _454
REMARK  191  A    between atoms: _460  and  _462
REMARK  192  A    between atoms: _462  and  _463
REMARK  193  A    between atoms: _462  and  _465
REMARK  194  A    between atoms: _465  and  _466
REMARK  195  A    between atoms: _469  and  _471
REMARK  196  A    between atoms: _471  and  _472
REMARK  197  A    between atoms: _471  and  _474
REMARK  198  A    between atoms: _477  and  _479
REMARK  199  A    between atoms: _479  and  _480
REMARK  200  A    between atoms: _479  and  _482
REMARK  201  A    between atoms: _482  and  _483
REMARK  202  A    between atoms: _487  and  _488
REMARK  203  A    between atoms: _493  and  _495
REMARK  204  A    between atoms: _495  and  _496
REMARK  205  A    between atoms: _495  and  _498
REMARK  206  A    between atoms: _498  and  _499
REMARK  207  A    between atoms: _503  and  _504
REMARK  208  A    between atoms: _509  and  _511
REMARK  209  A    between atoms: _511  and  _512
REMARK  210  A    between atoms: _511  and  _514
REMARK  211  A    between atoms: _517  and  _519
REMARK  212  A    between atoms: _519  and  _520
REMARK  213  A    between atoms: _519  and  _522
REMARK  214  A    between atoms: _522  and  _523
REMARK  215  A    between atoms: _528  and  _530
REMARK  216  A    between atoms: _530  and  _531
REMARK  217  A    between atoms: _530  and  _533
REMARK  218  A    between atoms: _533  and  _534
REMARK  219  A    between atoms: _537  and  _539
REMARK  220  A    between atoms: _539  and  _540
REMARK  221  A    between atoms: _539  and  _542
REMARK  222  A    between atoms: _542  and  _543
REMARK  223  A    between atoms: _546  and  _548
REMARK  224  A    between atoms: _548  and  _549
REMARK  225  A    between atoms: _551  and  _553
REMARK  226  A    between atoms: _553  and  _554
REMARK  227  A    between atoms: _553  and  _556
REMARK  228  A    between atoms: _556  and  _557
REMARK  229  A    between atoms: _557  and  _558
REMARK  230  A    between atoms: _558  and  _559
REMARK  231  A    between atoms: _568  and  _570
REMARK  232  A    between atoms: _570  and  _571
REMARK  233  A    between atoms: _570  and  _573
REMARK  234  A    between atoms: _573  and  _574
REMARK                            x       y       z     vdW  Elec       q    Type
REMARK                         _______ _______ _______ _____ _____    ______ ____
ROOT
ATOM      1  CA  VAL A   1      13.487 -33.446 -24.408  0.00  0.00    +0.133 C 
ENDROOT
BRANCH   1   2
ATOM      2  CB  VAL A   1      14.024 -31.979 -24.410  0.00  0.00    +0.023 C 
ATOM      3  CG2 VAL A   1      13.103 -31.049 -23.610  0.00  0.00    +0.002 C 
ATOM      4  CG1 VAL A   1      15.432 -31.947 -23.872  0.00  0.00    +0.002 C 
ENDBRANCH   1   2
BRANCH   1   5
ATOM      5  N   VAL A   1      13.394 -33.985 -23.043  0.00  0.00    -0.239 NA
ATOM      6  H   VAL A   1      14.271 -34.296 -22.579  0.00  0.00    +0.142 HD
ENDBRANCH   1   5
BRANCH   1   7
ATOM      7  C   VAL A   1      14.403 -34.333 -25.246  0.00  0.00    +0.224 C 
ATOM      8  O   VAL A   1      15.117 -35.206 -24.714  0.00  0.00    -0.287 OA
ENDBRANCH   1   7
TORSDOF 3
REMARK  Name = ../refined-set-2016/2o4s/2o4s_pocket.pdb
REMARK  234 active torsions:
REMARK  status: ('A' for Active; 'I' for Inactive)
REMARK    1  A    between atoms: _1  and  _3
REMARK    2  A    between atoms: _3  and  _4
REMARK    3  A    between atoms: _3  and  _6
REMARK    4  A    between atoms: _6  and  _7
REMARK    5  A    between atoms: _7  and  _8
REMARK    6  A    between atoms: _8  and  _9
REMARK    7  A    between atoms: _18  and  _20
REMARK    8  A    between atoms: _20  and  _21
REMARK    9  A    between atoms: _20  and  _23
REMARK   10  A    between atoms: _23  and  _24
REMARK   11  A    between atoms: _27  and  _29
REMARK   12  A    between atoms: _29  and  _30
REMARK   13  A    between atoms: _29  and  _32
REMARK   14  A    between atoms: _32  and  _33
REMARK   15  A    between atoms: _36  and  _38
REMARK   16  A    between atoms: _38  and  _39
REMARK   17  A    between atoms: _38  and  _41
REMARK   18  A    between atoms: _41  and  _42
REMARK   19  A    between atoms: _45  and  _47
REMARK   20  A    between atoms: _47  and  _48
REMARK   21  A    between atoms: _47  and  _50
REMARK   22  A    between atoms: _50  and  _51
REMARK   23  A    between atoms: _54  and  _56
REMARK   24  A    between atoms: _56  and  _57
REMARK   25  A    between atoms: _59  and  _61
REMARK   26  A    between atoms: _61  and  _62
REMARK   27  A    between atoms: _65  and  _67
REMARK   28  A    between atoms: _67  and  _68
REMARK   29  A    between atoms: _67  and  _70
REMARK   30  A    between atoms: _70  and  _71
REMARK   31  A    between atoms: _74  and  _76
REMARK   32  A    between atoms: _76  and  _77
REMARK   33  A    between atoms: _76  and  _79
REMARK   34  A    between atoms: _79  and  _80
REMARK   35  A    between atoms: _83  and  _85
REMARK   36  A    between atoms: _85  and  _86
REMARK   37  A    between atoms: _85  and  _88
REMARK   38  A    between atoms: _88  and  _89
REMARK   39  A    between atoms: _92  and  _94
REMARK   40  A    between atoms: _94  and  _95
REMARK   41  A    between atoms: _94  and  _97
REMARK   42  A    between atoms: _100  and  _102
REMARK   43  A    between atoms: _102  and  _103
REMARK   44  A    between atoms: _102  and  _105
REMARK   45  A    between atoms: _105  and  _106
REMARK   46  A    between atoms: _106  and  _107
REMARK   47  A    between atoms: _107  and  _108
REMARK   48  A    between atoms: _108  and  _109
REMARK   49  A    between atoms: _113  and  _115
REMARK   50  A    between atoms: _115  and  _116
REMARK   51  A    between atoms: _115  and  _118
REMARK   52  A    between atoms: _118  and  _119
REMARK   53  A    between atoms: _119  and  _120
REMARK   54  A    between atoms: _122  and  _124
REMARK   55  A    between atoms: _124  and  _125
REMARK   56  A    between atoms: _124  and  _127
REMARK   57  A    between atoms: _127  and  _128
REMARK   58  A    between atoms: _131  and  _133
REMARK   59  A    between atoms: _133  and  _134
REMARK   60  A    between atoms: _136  and  _138
REMARK   61  A    between atoms: _138  and  _139
REMARK   62  A    between atoms: _141  and  _143
REMARK   63  A    between atoms: _143  and  _144
REMARK   64  A    between atoms: _143  and  _146
REMARK   65  A    between atoms: _146  and  _147
REMARK   66  A    between atoms: _150  and  _152
REMARK   67  A    between atoms: _152  and  _153
REMARK   68  A    between atoms: _155  and  _157
REMARK   69  A    between atoms: _157  and  _158
REMARK   70  A    between atoms: _160  and  _162
REMARK   71  A    between atoms: _162  and  _163
REMARK   72  A    between atoms: _162  and  _165
REMARK   73  A    between atoms: _165  and  _166
REMARK   74  A    between atoms: _172  and  _174
REMARK   75  A    between atoms: _174  and  _175
REMARK   76  A    between atoms: _174  and  _177
REMARK   77  A    between atoms: _177  and  _178
REMARK   78  A    between atoms: _181  and  _183
REMARK   79  A    between atoms: _183  and  _184
REMARK   80  A    between atoms: _183  and  _186
REMARK   81  A    between atoms: _189  and  _191
REMARK   82  A    between atoms: _191  and  _192
REMARK   83  A    between atoms: _191  and  _194
REMARK   84  A    between atoms: _194  and  _195
REMARK   85  A    between atoms: _199  and  _200
REMARK   86  A    between atoms: _205  and  _207
REMARK   87  A    between atoms: _207  and  _208
REMARK   88  A    between atoms: _207  and  _210
REMARK   89  A    between atoms: _210  and  _211
REMARK   90  A    between atoms: _215  and  _216
REMARK   91  A    between atoms: _221  and  _223
REMARK   92  A    between atoms: _223  and  _224
REMARK   93  A    between atoms: _223  and  _226
REMARK   94  A    between atoms: _229  and  _231
REMARK   95  A    between atoms: _231  and  _232
REMARK   96  A    between atoms: _231  and  _234
REMARK   97  A    between atoms: _234  and  _235
REMARK   98  A    between atoms: _240  and  _242
REMARK   99  A    between atoms: _242  and  _243
REMARK  100  A    between atoms: _242  and  _245
REMARK  101  A    between atoms: _245  and  _246
REMARK  102  A    between atoms: _249  and  _251
REMARK  103  A    between atoms: _251  and  _252
REMARK  104  A    between atoms: _251  and  _254
REMARK  105  A    between atoms: _254  and  _255
REMARK  106  A    between atoms: _258  and  _260
REMARK  107  A    between atoms: _260  and  _261
REMARK  108  A    between atoms: _263  and  _265
REMARK  109  A    between atoms: _265  and  _266
REMARK  110  A    between atoms: _265  and  _268
REMARK  111  A    between atoms: _268  and  _269
REMARK  112  A    between atoms: _269  and  _270
REMARK  113  A    between atoms: _270  and  _271
REMARK  114  A    between atoms: _280  and  _282
REMARK  115  A    between atoms: _282  and  _283
REMARK  116  A    between atoms: _282  and  _285
REMARK  117  A    between atoms: _285  and  _286
REMARK  118  A    between atoms: _286  and  _287
REMARK  119  A    between atoms: _287  and  _288
REMARK  120  A    between atoms: _297  and  _299
REMARK  121  A    between atoms: _299  and  _300
REMARK  122  A    between atoms: _299  and  _302
REMARK  123  A    between atoms: _302  and  _303
REMARK  124  A    between atoms: _306  and  _308
REMARK  125  A    between atoms: _308  and  _309
REMARK  126  A    between atoms: _308  and  _311
REMARK  127  A    between atoms: _311  and  _312
REMARK  128  A    between atoms: _315  and  _317
REMARK  129  A    between atoms: _317  and  _318
REMARK  130  A    between atoms: _317  and  _320
REMARK  131  A    between atoms: _320  and  _321
REMARK  132  A    between atoms: _324  and  _326
REMARK  133  A    between atoms: _326  and  _327
REMARK  134  A    between atoms: _326  and  _329
REMARK  135  A    between atoms: _329  and  _330
REMARK  136  A    between atoms: _333  and  _335
REMARK  137  A    between atoms: _335  and  _336
REMARK  138  A    between atoms: _338  and  _340
REMARK  139  A    between atoms: _340  and  _341
REMARK  140  A    between atoms: _344  and  _346
REMARK  141  A    between atoms: _346  and  _347
REMARK  142  A    between atoms: _346  and  _349
REMARK  143  A    between atoms: _349  and  _350
REMARK  144  A    between atoms: _353  and  _355
REMARK  145  A    between atoms: _355  and  _356
REMARK  146  A    between atoms: _355  and  _358
REMARK  147  A    between atoms: _358  and  _359
REMARK  148  A    between atoms: _362  and  _364
REMARK  149  A    between atoms: _364  and  _365
REMARK  150  A    between atoms: _364  and  _367
REMARK  151  A    between atoms: _367  and  _368
REMARK  152  A    between atoms: _371  and  _373
REMARK  153  A    between atoms: _373  and  _374
REMARK  154  A    between atoms: _373  and  _376
REMARK  155  A    between atoms: _379  and  _381
REMARK  156  A    between atoms: _381  and  _382
REMARK  157  A    between atoms: _381  and  _384
REMARK  158  A    between atoms: _384  and  _385
REMARK  159  A    between atoms: _388  and  _390
REMARK  160  A    between atoms: _390  and  _391
REMARK  161  A    between atoms: _390  and  _393
REMARK  162  A    between atoms: _393  and  _394
REMARK  163  A    between atoms: _394  and  _395
REMARK  164  A    between atoms: _395  and  _396
REMARK  165  A    between atoms: _396  and  _397
REMARK  166  A    between atoms: _401  and  _403
REMARK  167  A    between atoms: _403  and  _404
REMARK  168  A    between atoms: _403  and  _406
REMARK  169  A    between atoms: _406  and  _407
REMARK  170  A    between atoms: _407  and  _408
REMARK  171  A    between atoms: _410  and  _412
REMARK  172  A    between atoms: _412  and  _413
REMARK  173  A    between atoms: _412  and  _415
REMARK  174  A    between atoms: _415  and  _416
REMARK  175  A    between atoms: _419  and  _421
REMARK  176  A    between atoms: _421  and  _422
REMARK  177  A    between atoms: _424  and  _426
REMARK  178  A    between atoms: _426  and  _427
REMARK  179  A    between atoms: _429  and  _431
REMARK  180  A    between atoms: _431  and  _432
REMARK  181  A    between atoms: _431  and  _434
REMARK  182  A    between atoms: _434  and  _435
REMARK  183  A    between atoms: _438  and  _440
REMARK  184  A    between atoms: _440  and  _441
REMARK  185  A    between atoms: _443  and  _445
REMARK  186  A    between atoms: _445  and  _446
REMARK  187  A    between atoms: _448  and  _450
REMARK  188  A    between atoms: _450  and  _451
REMARK  189  A    between atoms: _450  and  _453
REMARK  190  A    between atoms: _453  and  _454
REMARK  191  A    between atoms: _460  and  _462
REMARK  192  A    between atoms: _462  and  _463
REMARK  193  A    between atoms: _462  and  _465
REMARK  194  A    between atoms: _465  and  _466
REMARK  195  A    between atoms: _469  and  _471
REMARK  196  A    between atoms: _471  and  _472
REMARK  197  A    between atoms: _471  and  _474
REMARK  198  A    between atoms: _477  and  _479
REMARK  199  A    between atoms: _479  and  _480
REMARK  200  A    between atoms: _479  and  _482
REMARK  201  A    between atoms: _482  and  _483
REMARK  202  A    between atoms: _487  and  _488
REMARK  203  A    between atoms: _493  and  _495
REMARK  204  A    between atoms: _495  and  _496
REMARK  205  A    between atoms: _495  and  _498
REMARK  206  A    between atoms: _498  and  _499
REMARK  207  A    between atoms: _503  and  _504
REMARK  208  A    between atoms: _509  and  _511
REMARK  209  A    between atoms: _511  and  _512
REMARK  210  A    between atoms: _511  and  _514
REMARK  211  A    between atoms: _517  and  _519
REMARK  212  A    between atoms: _519  and  _520
REMARK  213  A    between atoms: _519  and  _522
REMARK  214  A    between atoms: _522  and  _523
REMARK  215  A    between atoms: _528  and  _530
REMARK  216  A    between atoms: _530  and  _531
REMARK  217  A    between atoms: _530  and  _533
REMARK  218  A    between atoms: _533  and  _534
REMARK  219  A    between atoms: _537  and  _539
REMARK  220  A    between atoms: _539  and  _540
REMARK  221  A    between atoms: _539  and  _542
REMARK  222  A    between atoms: _542  and  _543
REMARK  223  A    between atoms: _546  and  _548
REMARK  224  A    between atoms: _548  and  _549
REMARK  225  A    between atoms: _551  and  _553
REMARK  226  A    between atoms: _553  and  _554
REMARK  227  A    between atoms: _553  and  _556
REMARK  228  A    between atoms: _556  and  _557
REMARK  229  A    between atoms: _557  and  _558
REMARK  230  A    between atoms: _558  and  _559
REMARK  231  A    between atoms: _568  and  _570
REMARK  232  A    between atoms: _570  and  _571
REMARK  233  A    between atoms: _570  and  _573
REMARK  234  A    between atoms: _573  and  _574
REMARK                            x       y       z     vdW  Elec       q    Type
REMARK                         _______ _______ _______ _____ _____    ______ ____
ROOT
ATOM      1  CA  LEU A   1      16.509 -29.617 -28.017  0.00  0.00    +0.133 C 
ENDROOT
BRANCH   1   2
ATOM      2  N   LEU A   1      17.434 -28.707 -28.724  0.00  0.00    -0.239 NA
ATOM      3  H   LEU A   1      17.616 -27.764 -28.324  0.00  0.00    +0.142 HD
ENDBRANCH   1   2
BRANCH   1   4
ATOM      4  C   LEU A   1      15.086 -29.452 -28.502  0.00  0.00    +0.224 C 
ATOM      5  O   LEU A   1      14.671 -28.353 -28.861  0.00  0.00    -0.287 OA
ENDBRANCH   1   4
BRANCH   1   6
ATOM      6  CB  LEU A   1      16.561 -29.397 -26.501  0.00  0.00    +0.025 C 
BRANCH   6   7
ATOM      7  CG  LEU A   1      17.976 -29.188 -25.932  0.00  0.00    +0.002 C 
ATOM      8  CD2 LEU A   1      17.975 -28.924 -24.415  0.00  0.00    +0.000 C 
ATOM      9  CD1 LEU A   1      18.870 -30.395 -26.217  0.00  0.00    +0.000 C 
ENDBRANCH   6   7
ENDBRANCH   1   6
TORSDOF 4
REMARK  Name = ../refined-set-2016/2o4s/2o4s_pocket.pdb
REMARK  234 active torsions:
REMARK  status: ('A' for Active; 'I' for Inactive)
REMARK    1  A    between atoms: _1  and  _3
REMARK    2  A    between atoms: _3  and  _4
REMARK    3  A    between atoms: _3  and  _6
REMARK    4  A    between atoms: _6  and  _7
REMARK    5  A    between atoms: _7  and  _8
REMARK    6  A    between atoms: _8  and  _9
REMARK    7  A    between atoms: _18  and  _20
REMARK    8  A    between atoms: _20  and  _21
REMARK    9  A    between atoms: _20  and  _23
REMARK   10  A    between atoms: _23  and  _24
REMARK   11  A    between atoms: _27  and  _29
REMARK   12  A    between atoms: _29  and  _30
REMARK   13  A    between atoms: _29  and  _32
REMARK   14  A    between atoms: _32  and  _33
REMARK   15  A    between atoms: _36  and  _38
REMARK   16  A    between atoms: _38  and  _39
REMARK   17  A    between atoms: _38  and  _41
REMARK   18  A    between atoms: _41  and  _42
REMARK   19  A    between atoms: _45  and  _47
REMARK   20  A    between atoms: _47  and  _48
REMARK   21  A    between atoms: _47  and  _50
REMARK   22  A    between atoms: _50  and  _51
REMARK   23  A    between atoms: _54  and  _56
REMARK   24  A    between atoms: _56  and  _57
REMARK   25  A    between atoms: _59  and  _61
REMARK   26  A    between atoms: _61  and  _62
REMARK   27  A    between atoms: _65  and  _67
REMARK   28  A    between atoms: _67  and  _68
REMARK   29  A    between atoms: _67  and  _70
REMARK   30  A    between atoms: _70  and  _71
REMARK   31  A    between atoms: _74  and  _76
REMARK   32  A    between atoms: _76  and  _77
REMARK   33  A    between atoms: _76  and  _79
REMARK   34  A    between atoms: _79  and  _80
REMARK   35  A    between atoms: _83  and  _85
REMARK   36  A    between atoms: _85  and  _86
REMARK   37  A    between atoms: _85  and  _88
REMARK   38  A    between atoms: _88  and  _89
REMARK   39  A    between atoms: _92  and  _94
REMARK   40  A    between atoms: _94  and  _95
REMARK   41  A    between atoms: _94  and  _97
REMARK   42  A    between atoms: _100  and  _102
REMARK   43  A    between atoms: _102  and  _103
REMARK   44  A    between atoms: _102  and  _105
REMARK   45  A    between atoms: _105  and  _106
REMARK   46  A    between atoms: _106  and  _107
REMARK   47  A    between atoms: _107  and  _108
REMARK   48  A    between atoms: _108  and  _109
REMARK   49  A    between atoms: _113  and  _115
REMARK   50  A    between atoms: _115  and  _116
REMARK   51  A    between atoms: _115  and  _118
REMARK   52  A    between atoms: _118  and  _119
REMARK   53  A    between atoms: _119  and  _120
REMARK   54  A    between atoms: _122  and  _124
REMARK   55  A    between atoms: _124  and  _125
REMARK   56  A    between atoms: _124  and  _127
REMARK   57  A    between atoms: _127  and  _128
REMARK   58  A    between atoms: _131  and  _133
REMARK   59  A    between atoms: _133  and  _134
REMARK   60  A    between atoms: _136  and  _138
REMARK   61  A    between atoms: _138  and  _139
REMARK   62  A    between atoms: _141  and  _143
REMARK   63  A    between atoms: _143  and  _144
REMARK   64  A    between atoms: _143  and  _146
REMARK   65  A    between atoms: _146  and  _147
REMARK   66  A    between atoms: _150  and  _152
REMARK   67  A    between atoms: _152  and  _153
REMARK   68  A    between atoms: _155  and  _157
REMARK   69  A    between atoms: _157  and  _158
REMARK   70  A    between atoms: _160  and  _162
REMARK   71  A    between atoms: _162  and  _163
REMARK   72  A    between atoms: _162  and  _165
REMARK   73  A    between atoms: _165  and  _166
REMARK   74  A    between atoms: _172  and  _174
REMARK   75  A    between atoms: _174  and  _175
REMARK   76  A    between atoms: _174  and  _177
REMARK   77  A    between atoms: _177  and  _178
REMARK   78  A    between atoms: _181  and  _183
REMARK   79  A    between atoms: _183  and  _184
REMARK   80  A    between atoms: _183  and  _186
REMARK   81  A    between atoms: _189  and  _191
REMARK   82  A    between atoms: _191  and  _192
REMARK   83  A    between atoms: _191  and  _194
REMARK   84  A    between atoms: _194  and  _195
REMARK   85  A    between atoms: _199  and  _200
REMARK   86  A    between atoms: _205  and  _207
REMARK   87  A    between atoms: _207  and  _208
REMARK   88  A    between atoms: _207  and  _210
REMARK   89  A    between atoms: _210  and  _211
REMARK   90  A    between atoms: _215  and  _216
REMARK   91  A    between atoms: _221  and  _223
REMARK   92  A    between atoms: _223  and  _224
REMARK   93  A    between atoms: _223  and  _226
REMARK   94  A    between atoms: _229  and  _231
REMARK   95  A    between atoms: _231  and  _232
REMARK   96  A    between atoms: _231  and  _234
REMARK   97  A    between atoms: _234  and  _235
REMARK   98  A    between atoms: _240  and  _242
REMARK   99  A    between atoms: _242  and  _243
REMARK  100  A    between atoms: _242  and  _245
REMARK  101  A    between atoms: _245  and  _246
REMARK  102  A    between atoms: _249  and  _251
REMARK  103  A    between atoms: _251  and  _252
REMARK  104  A    between atoms: _251  and  _254
REMARK  105  A    between atoms: _254  and  _255
REMARK  106  A    between atoms: _258  and  _260
REMARK  107  A    between atoms: _260  and  _261
REMARK  108  A    between atoms: _263  and  _265
REMARK  109  A    between atoms: _265  and  _266
REMARK  110  A    between atoms: _265  and  _268
REMARK  111  A    between atoms: _268  and  _269
REMARK  112  A    between atoms: _269  and  _270
REMARK  113  A    between atoms: _270  and  _271
REMARK  114  A    between atoms: _280  and  _282
REMARK  115  A    between atoms: _282  and  _283
REMARK  116  A    between atoms: _282  and  _285
REMARK  117  A    between atoms: _285  and  _286
REMARK  118  A    between atoms: _286  and  _287
REMARK  119  A    between atoms: _287  and  _288
REMARK  120  A    between atoms: _297  and  _299
REMARK  121  A    between atoms: _299  and  _300
REMARK  122  A    between atoms: _299  and  _302
REMARK  123  A    between atoms: _302  and  _303
REMARK  124  A    between atoms: _306  and  _308
REMARK  125  A    between atoms: _308  and  _309
REMARK  126  A    between atoms: _308  and  _311
REMARK  127  A    between atoms: _311  and  _312
REMARK  128  A    between atoms: _315  and  _317
REMARK  129  A    between atoms: _317  and  _318
REMARK  130  A    between atoms: _317  and  _320
REMARK  131  A    between atoms: _320  and  _321
REMARK  132  A    between atoms: _324  and  _326
REMARK  133  A    between atoms: _326  and  _327
REMARK  134  A    between atoms: _326  and  _329
REMARK  135  A    between atoms: _329  and  _330
REMARK  136  A    between atoms: _333  and  _335
REMARK  137  A    between atoms: _335  and  _336
REMARK  138  A    between atoms: _338  and  _340
REMARK  139  A    between atoms: _340  and  _341
REMARK  140  A    between atoms: _344  and  _346
REMARK  141  A    between atoms: _346  and  _347
REMARK  142  A    between atoms: _346  and  _349
REMARK  143  A    between atoms: _349  and  _350
REMARK  144  A    between atoms: _353  and  _355
REMARK  145  A    between atoms: _355  and  _356
REMARK  146  A    between atoms: _355  and  _358
REMARK  147  A    between atoms: _358  and  _359
REMARK  148  A    between atoms: _362  and  _364
REMARK  149  A    between atoms: _364  and  _365
REMARK  150  A    between atoms: _364  and  _367
REMARK  151  A    between atoms: _367  and  _368
REMARK  152  A    between atoms: _371  and  _373
REMARK  153  A    between atoms: _373  and  _374
REMARK  154  A    between atoms: _373  and  _376
REMARK  155  A    between atoms: _379  and  _381
REMARK  156  A    between atoms: _381  and  _382
REMARK  157  A    between atoms: _381  and  _384
REMARK  158  A    between atoms: _384  and  _385
REMARK  159  A    between atoms: _388  and  _390
REMARK  160  A    between atoms: _390  and  _391
REMARK  161  A    between atoms: _390  and  _393
REMARK  162  A    between atoms: _393  and  _394
REMARK  163  A    between atoms: _394  and  _395
REMARK  164  A    between atoms: _395  and  _396
REMARK  165  A    between atoms: _396  and  _397
REMARK  166  A    between atoms: _401  and  _403
REMARK  167  A    between atoms: _403  and  _404
REMARK  168  A    between atoms: _403  and  _406
REMARK  169  A    between atoms: _406  and  _407
REMARK  170  A    between atoms: _407  and  _408
REMARK  171  A    between atoms: _410  and  _412
REMARK  172  A    between atoms: _412  and  _413
REMARK  173  A    between atoms: _412  and  _415
REMARK  174  A    between atoms: _415  and  _416
REMARK  175  A    between atoms: _419  and  _421
REMARK  176  A    between atoms: _421  and  _422
REMARK  177  A    between atoms: _424  and  _426
REMARK  178  A    between atoms: _426  and  _427
REMARK  179  A    between atoms: _429  and  _431
REMARK  180  A    between atoms: _431  and  _432
REMARK  181  A    between atoms: _431  and  _434
REMARK  182  A    between atoms: _434  and  _435
REMARK  183  A    between atoms: _438  and  _440
REMARK  184  A    between atoms: _440  and  _441
REMARK  185  A    between atoms: _443  and  _445
REMARK  186  A    between atoms: _445  and  _446
REMARK  187  A    between atoms: _448  and  _450
REMARK  188  A    between atoms: _450  and  _451
REMARK  189  A    between atoms: _450  and  _453
REMARK  190  A    between atoms: _453  and  _454
REMARK  191  A    between atoms: _460  and  _462
REMARK  192  A    between atoms: _462  and  _463
REMARK  193  A    between atoms: _462  and  _465
REMARK  194  A    between atoms: _465  and  _466
REMARK  195  A    between atoms: _469  and  _471
REMARK  196  A    between atoms: _471  and  _472
REMARK  197  A    between atoms: _471  and  _474
REMARK  198  A    between atoms: _477  and  _479
REMARK  199  A    between atoms: _479  and  _480
REMARK  200  A    between atoms: _479  and  _482
REMARK  201  A    between atoms: _482  and  _483
REMARK  202  A    between atoms: _487  and  _488
REMARK  203  A    between atoms: _493  and  _495
REMARK  204  A    between atoms: _495  and  _496
REMARK  205  A    between atoms: _495  and  _498
REMARK  206  A    between atoms: _498  and  _499
REMARK  207  A    between atoms: _503  and  _504
REMARK  208  A    between atoms: _509  and  _511
REMARK  209  A    between atoms: _511  and  _512
REMARK  210  A    between atoms: _511  and  _514
REMARK  211  A    between atoms: _517  and  _519
REMARK  212  A    between atoms: _519  and  _520
REMARK  213  A    between atoms: _519  and  _522
REMARK  214  A    between atoms: _522  and  _523
REMARK  215  A    between atoms: _528  and  _530
REMARK  216  A    between atoms: _530  and  _531
REMARK  217  A    between atoms: _530  and  _533
REMARK  218  A    between atoms: _533  and  _534
REMARK  219  A    between atoms: _537  and  _539
REMARK  220  A    between atoms: _539  and  _540
REMARK  221  A    between atoms: _539  and  _542
REMARK  222  A    between atoms: _542  and  _543
REMARK  223  A    between atoms: _546  and  _548
REMARK  224  A    between atoms: _548  and  _549
REMARK  225  A    between atoms: _551  and  _553
REMARK  226  A    between atoms: _553  and  _554
REMARK  227  A    between atoms: _553  and  _556
REMARK  228  A    between atoms: _556  and  _557
REMARK  229  A    between atoms: _557  and  _558
REMARK  230  A    between atoms: _558  and  _559
REMARK  231  A    between atoms: _568  and  _570
REMARK  232  A    between atoms: _570  and  _571
REMARK  233  A    between atoms: _570  and  _573
REMARK  234  A    between atoms: _573  and  _574
REMARK                            x       y       z     vdW  Elec       q    Type
REMARK                         _______ _______ _______ _____ _____    ______ ____
ROOT
ATOM      1  CA  ILE A   6      13.724 -20.646 -26.507  0.00  0.00    +0.149 C 
ENDROOT
BRANCH   1   2
ATOM      2  C   ILE A   6      15.083 -20.779 -27.178  0.00  0.00    +0.241 C 
ATOM      3  N   ILE A   7      15.739 -19.651 -27.444  0.00  0.00    -0.297 N 
ATOM      4  H   ILE A   7      15.260 -18.741 -27.292  0.00  0.00    +0.150 HD
ATOM      5  O   ILE A   6      15.502 -21.893 -27.473  0.00  0.00    -0.273 OA
BRANCH   3   6
ATOM      6  CA  ILE A   7      17.095 -19.654 -27.937  0.00  0.00    +0.149 C 
BRANCH   6   7
ATOM      7  C   ILE A   7      17.996 -19.423 -26.705  0.00  0.00    +0.241 C 
ATOM      8  O   ILE A   7      17.960 -18.336 -26.107  0.00  0.00    -0.273 OA
ATOM      9  N   GLY A   8      18.730 -20.448 -26.307  0.00  0.00    -0.295 N 
ATOM     10  H   GLY A   8      18.687 -21.332 -26.854  0.00  0.00    +0.150 HD
BRANCH   9  11
ATOM     11  CA  GLY A   8      19.605 -20.394 -25.124  0.00  0.00    +0.176 C 
BRANCH  11  12
ATOM     12  C   GLY A   8      21.057 -20.006 -25.360  0.00  0.00    +0.243 C 
ATOM     13  N   ARG A   9      21.835 -19.978 -24.287  0.00  0.00    -0.297 N 
ATOM     14  H   ARG A   9      21.466 -20.309 -23.373  0.00  0.00    +0.150 HD
ATOM     15  O   GLY A   8      21.477 -19.712 -26.497  0.00  0.00    -0.273 OA
BRANCH  13  16
ATOM     16  CA  ARG A   9      23.223 -19.480 -24.382  0.00  0.00    +0.149 C 
BRANCH  16  17
ATOM     17  C   ARG A   9      24.093 -20.189 -25.406  0.00  0.00    +0.241 C 
ATOM     18  N   ASN A  10      23.845 -21.474 -25.646  0.00  0.00    -0.298 N 
ATOM     19  H   ASN A  10      23.081 -21.967 -25.142  0.00  0.00    +0.150 HD
ATOM     20  O   ARG A   9      24.953 -19.565 -26.001  0.00  0.00    -0.273 OA
BRANCH  18  21
ATOM     21  CA  ASN A  10      24.655 -22.175 -26.620  0.00  0.00    +0.146 C 
BRANCH  21  22
ATOM     22  C   ASN A  10      24.589 -21.487 -27.990  0.00  0.00    +0.227 C 
ATOM     23  O   ASN A  10      25.630 -21.335 -28.639  0.00  0.00    -0.286 OA
ENDBRANCH  21  22
BRANCH  21  24
ATOM     24  CB  ASN A  10      24.301 -23.665 -26.715  0.00  0.00    +0.112 C 
BRANCH  24  25
ATOM     25  CG  ASN A  10      22.990 -23.908 -27.409  0.00  0.00    +0.222 C 
ATOM     26  OD1 ASN A  10      21.991 -23.322 -27.035  0.00  0.00    -0.275 OA
ATOM     27  ND2 ASN A  10      22.988 -24.767 -28.429  0.00  0.00    -0.329 N 
ATOM     28 HD21 ASN A  10      23.869 -25.243 -28.710  0.00  0.00    +0.145 HD
ATOM     29 HD22 ASN A  10      22.105 -24.961 -28.944  0.00  0.00    +0.145 HD
ENDBRANCH  24  25
ENDBRANCH  21  24
ENDBRANCH  18  21
ENDBRANCH  16  17
BRANCH  16  30
ATOM     30  CB  ARG A   9      23.929 -19.423 -23.016  0.00  0.00    +0.033 C 
BRANCH  30  31
ATOM     31  CG  ARG A   9      23.253 -18.457 -22.029  0.00  0.00    +0.045 C 
BRANCH  31  32
ATOM     32  CD  ARG A   9      24.020 -18.365 -20.672  0.00  0.00    +0.174 C 
BRANCH  32  33
ATOM     33  NE  ARG A   9      24.005 -19.661 -19.967  0.00  0.00    -0.265 N 
ATOM     34  HE  ARG A   9      23.163 -19.893 -19.403  0.00  0.00    +0.259 HD
ATOM     35  CZ  ARG A   9      24.996 -20.559 -20.000  0.00  0.00    +0.342 C 
ATOM     36  NH2 ARG A   9      24.848 -21.708 -19.343  0.00  0.00    -0.292 N 
ATOM     37 HH21 ARG A   9      23.972 -21.896 -18.815  0.00  0.00    +0.255 HD
ATOM     38 HH22 ARG A   9      25.608 -22.417 -19.358  0.00  0.00    +0.255 HD
ATOM     39  NH1 ARG A   9      26.143 -20.313 -20.657  0.00  0.00    -0.292 N 
ATOM     40 HH11 ARG A   9      26.899 -21.027 -20.668  0.00  0.00    +0.255 HD
ATOM     41 HH12 ARG A   9      26.274 -19.409 -21.154  0.00  0.00    +0.255 HD
ENDBRANCH  32  33
ENDBRANCH  31  32
ENDBRANCH  30  31
ENDBRANCH  16  30
ENDBRANCH  13  16
ENDBRANCH  11  12
ENDBRANCH   9  11
ENDBRANCH   6   7
BRANCH   6  42
ATOM     42  CB  ILE A   7      17.327 -18.550 -29.000  0.00  0.00    +0.027 C 
ATOM     43  CG2 ILE A   7      18.799 -18.506 -29.415  0.00  0.00    +0.002 C 
BRANCH  42  44
ATOM     44  CG1 ILE A   7      16.370 -18.676 -30.211  0.00  0.00    +0.002 C 
ATOM     45  CD1 ILE A   7      16.348 -20.057 -30.851  0.00  0.00    +0.000 C 
ENDBRANCH  42  44
ENDBRANCH   6  42
ENDBRANCH   3   6
ENDBRANCH   1   2
BRANCH   1  47
ATOM     46  C   ASN A   5      11.592 -20.736 -27.710  0.00  0.00    +0.241 C 
ATOM     47  N   ILE A   6      12.695 -21.345 -27.289  0.00  0.00    -0.297 N 
ATOM     48  H   ILE A   6      12.835 -22.349 -27.520  0.00  0.00    +0.150 HD
ATOM     49  O   ASN A   5      11.403 -19.516 -27.609  0.00  0.00    -0.273 OA
BRANCH  46  50
ATOM     50  CA  ASN A   5      10.521 -21.621 -28.370  0.00  0.00    +0.158 C 
BRANCH  50  53
ATOM     51  C   VAL A   4       8.982 -21.750 -26.507  0.00  0.00    +0.241 C 
ATOM     52  O   VAL A   4       9.793 -22.439 -25.859  0.00  0.00    -0.273 OA
ATOM     53  N   ASN A   5       9.211 -21.401 -27.777  0.00  0.00    -0.297 N 
ATOM     54  H   ASN A   5       8.451 -20.971 -28.342  0.00  0.00    +0.150 HD
BRANCH  51  55
ATOM     55  CA  VAL A   4       7.666 -21.314 -25.894  0.00  0.00    +0.149 C 
BRANCH  55  57
ATOM     56  C   PRO A   3       5.906 -22.606 -24.807  0.00  0.00    +0.241 C 
ATOM     57  N   VAL A   4       7.204 -22.353 -24.980  0.00  0.00    -0.297 N 
ATOM     58  H   VAL A   4       7.904 -22.910 -24.450  0.00  0.00    +0.150 HD
ATOM     59  O   PRO A   3       5.026 -22.029 -25.457  0.00  0.00    -0.273 OA
BRANCH  56  65
ATOM     60  C   THR A   2       7.070 -25.464 -24.319  0.00  0.00    +0.246 C 
ATOM     61  N   PRO A   3       6.618 -24.580 -23.412  0.00  0.00    -0.272 N 
ATOM     62  CD  PRO A   3       7.036 -24.445 -22.013  0.00  0.00    +0.094 C 
ATOM     63  CG  PRO A   3       5.803 -23.862 -21.362  0.00  0.00    +0.024 C 
ATOM     64  CB  PRO A   3       5.331 -22.897 -22.410  0.00  0.00    +0.031 C 
ATOM     65  CA  PRO A   3       5.528 -23.626 -23.731  0.00  0.00    +0.152 C 
ATOM     66  O   THR A   2       6.591 -25.564 -25.430  0.00  0.00    -0.273 OA
BRANCH  60  67
ATOM     67  CA  THR A   2       8.279 -26.353 -23.927  0.00  0.00    +0.176 C 
BRANCH  67  70
ATOM     68  C   PRO A   1       7.426 -28.640 -23.718  0.00  0.00    +0.239 C 
ATOM     69  O   PRO A   1       6.996 -28.411 -22.577  0.00  0.00    -0.274 OA
ATOM     70  N   THR A   2       8.126 -27.736 -24.418  0.00  0.00    -0.295 N 
ATOM     71  H   THR A   2       8.567 -28.013 -25.318  0.00  0.00    +0.150 HD
BRANCH  68  76
ATOM     72  N   PRO A   1       8.366 -30.621 -24.938  0.00  0.00    -0.210 NA
ATOM     73  CD  PRO A   1       8.756 -31.851 -24.200  0.00  0.00    +0.089 C 
ATOM     74  CG  PRO A   1       8.011 -31.742 -22.935  0.00  0.00    +0.021 C 
ATOM     75  CB  PRO A   1       6.712 -31.082 -23.384  0.00  0.00    +0.028 C 
ATOM     76  CA  PRO A   1       7.174 -30.006 -24.385  0.00  0.00    +0.149 C 
ENDBRANCH  68  76
ENDBRANCH  67  70
BRANCH  67  77
ATOM     77  CB  THR A   2       9.618 -25.704 -24.443  0.00  0.00    +0.137 C 
ATOM     78  CG2 THR A   2       9.722 -25.719 -25.967  0.00  0.00    +0.034 C 
BRANCH  77  79
ATOM     79  OG1 THR A   2       9.690 -24.355 -23.982  0.00  0.00    -0.382 OA
ATOM     80  HG1 THR A   2       8.916 -23.846 -24.332  0.00  0.00    +0.210 HD
ENDBRANCH  77  79
ENDBRANCH  67  77
ENDBRANCH  60  67
ENDBRANCH  56  65
ENDBRANCH  55  57
BRANCH  55  81
ATOM     81  CB  VAL A   4       7.840 -19.908 -25.205  0.00  0.00    +0.027 C 
ATOM     82  CG2 VAL A   4       8.916 -19.935 -24.159  0.00  0.00    +0.002 C 
ATOM     83  CG1 VAL A   4       6.542 -19.395 -24.590  0.00  0.00    +0.002 C 
ENDBRANCH  55  81
ENDBRANCH  51  55
ENDBRANCH  50  53
BRANCH  50  84
ATOM     84  CB  ASN A   5      10.548 -21.355 -29.884  0.00  0.00    +0.114 C 
BRANCH  84  85
ATOM     85  CG  ASN A   5       9.627 -22.254 -30.655  0.00  0.00    +0.222 C 
ATOM     86  OD1 ASN A   5       9.483 -23.453 -30.380  0.00  0.00    -0.275 OA
ATOM     87  ND2 ASN A   5       9.008 -21.685 -31.660  0.00  0.00    -0.329 N 
ATOM     88 HD21 ASN A   5       9.156 -20.675 -31.857  0.00  0.00    +0.145 HD
ATOM     89 HD22 ASN A   5       8.368 -22.244 -32.260  0.00  0.00    +0.145 HD
ENDBRANCH  84  85
ENDBRANCH  50  84
ENDBRANCH  46  50
ENDBRANCH   1  47
BRANCH   1  90
ATOM     90  CB  ILE A   6      13.829 -21.270 -25.094  0.00  0.00    +0.027 C 
ATOM     91  CG2 ILE A   6      15.078 -20.784 -24.366  0.00  0.00    +0.002 C 
BRANCH  90  92
ATOM     92  CG1 ILE A   6      12.547 -20.979 -24.267  0.00  0.00    +0.002 C 
ATOM     93  CD1 ILE A   6      12.368 -21.978 -23.080  0.00  0.00    +0.000 C 
ENDBRANCH  90  92
ENDBRANCH   1  90
TORSDOF 33
REMARK  Name = ../refined-set-2016/2o4s/2o4s_pocket.pdb
REMARK  234 active torsions:
REMARK  status: ('A' for Active; 'I' for Inactive)
REMARK    1  A    between atoms: _1  and  _3
REMARK    2  A    between atoms: _3  and  _4
REMARK    3  A    between atoms: _3  and  _6
REMARK    4  A    between atoms: _6  and  _7
REMARK    5  A    between atoms: _7  and  _8
REMARK    6  A    between atoms: _8  and  _9
REMARK    7  A    between atoms: _18  and  _20
REMARK    8  A    between atoms: _20  and  _21
REMARK    9  A    between atoms: _20  and  _23
REMARK   10  A    between atoms: _23  and  _24
REMARK   11  A    between atoms: _27  and  _29
REMARK   12  A    between atoms: _29  and  _30
REMARK   13  A    between atoms: _29  and  _32
REMARK   14  A    between atoms: _32  and  _33
REMARK   15  A    between atoms: _36  and  _38
REMARK   16  A    between atoms: _38  and  _39
REMARK   17  A    between atoms: _38  and  _41
REMARK   18  A    between atoms: _41  and  _42
REMARK   19  A    between atoms: _45  and  _47
REMARK   20  A    between atoms: _47  and  _48
REMARK   21  A    between atoms: _47  and  _50
REMARK   22  A    between atoms: _50  and  _51
REMARK   23  A    between atoms: _54  and  _56
REMARK   24  A    between atoms: _56  and  _57
REMARK   25  A    between atoms: _59  and  _61
REMARK   26  A    between atoms: _61  and  _62
REMARK   27  A    between atoms: _65  and  _67
REMARK   28  A    between atoms: _67  and  _68
REMARK   29  A    between atoms: _67  and  _70
REMARK   30  A    between atoms: _70  and  _71
REMARK   31  A    between atoms: _74  and  _76
REMARK   32  A    between atoms: _76  and  _77
REMARK   33  A    between atoms: _76  and  _79
REMARK   34  A    between atoms: _79  and  _80
REMARK   35  A    between atoms: _83  and  _85
REMARK   36  A    between atoms: _85  and  _86
REMARK   37  A    between atoms: _85  and  _88
REMARK   38  A    between atoms: _88  and  _89
REMARK   39  A    between atoms: _92  and  _94
REMARK   40  A    between atoms: _94  and  _95
REMARK   41  A    between atoms: _94  and  _97
REMARK   42  A    between atoms: _100  and  _102
REMARK   43  A    between atoms: _102  and  _103
REMARK   44  A    between atoms: _102  and  _105
REMARK   45  A    between atoms: _105  and  _106
REMARK   46  A    between atoms: _106  and  _107
REMARK   47  A    between atoms: _107  and  _108
REMARK   48  A    between atoms: _108  and  _109
REMARK   49  A    between atoms: _113  and  _115
REMARK   50  A    between atoms: _115  and  _116
REMARK   51  A    between atoms: _115  and  _118
REMARK   52  A    between atoms: _118  and  _119
REMARK   53  A    between atoms: _119  and  _120
REMARK   54  A    between atoms: _122  and  _124
REMARK   55  A    between atoms: _124  and  _125
REMARK   56  A    between atoms: _124  and  _127
REMARK   57  A    between atoms: _127  and  _128
REMARK   58  A    between atoms: _131  and  _133
REMARK   59  A    between atoms: _133  and  _134
REMARK   60  A    between atoms: _136  and  _138
REMARK   61  A    between atoms: _138  and  _139
REMARK   62  A    between atoms: _141  and  _143
REMARK   63  A    between atoms: _143  and  _144
REMARK   64  A    between atoms: _143  and  _146
REMARK   65  A    between atoms: _146  and  _147
REMARK   66  A    between atoms: _150  and  _152
REMARK   67  A    between atoms: _152  and  _153
REMARK   68  A    between atoms: _155  and  _157
REMARK   69  A    between atoms: _157  and  _158
REMARK   70  A    between atoms: _160  and  _162
REMARK   71  A    between atoms: _162  and  _163
REMARK   72  A    between atoms: _162  and  _165
REMARK   73  A    between atoms: _165  and  _166
REMARK   74  A    between atoms: _172  and  _174
REMARK   75  A    between atoms: _174  and  _175
REMARK   76  A    between atoms: _174  and  _177
REMARK   77  A    between atoms: _177  and  _178
REMARK   78  A    between atoms: _181  and  _183
REMARK   79  A    between atoms: _183  and  _184
REMARK   80  A    between atoms: _183  and  _186
REMARK   81  A    between atoms: _189  and  _191
REMARK   82  A    between atoms: _191  and  _192
REMARK   83  A    between atoms: _191  and  _194
REMARK   84  A    between atoms: _194  and  _195
REMARK   85  A    between atoms: _199  and  _200
REMARK   86  A    between atoms: _205  and  _207
REMARK   87  A    between atoms: _207  and  _208
REMARK   88  A    between atoms: _207  and  _210
REMARK   89  A    between atoms: _210  and  _211
REMARK   90  A    between atoms: _215  and  _216
REMARK   91  A    between atoms: _221  and  _223
REMARK   92  A    between atoms: _223  and  _224
REMARK   93  A    between atoms: _223  and  _226
REMARK   94  A    between atoms: _229  and  _231
REMARK   95  A    between atoms: _231  and  _232
REMARK   96  A    between atoms: _231  and  _234
REMARK   97  A    between atoms: _234  and  _235
REMARK   98  A    between atoms: _240  and  _242
REMARK   99  A    between atoms: _242  and  _243
REMARK  100  A    between atoms: _242  and  _245
REMARK  101  A    between atoms: _245  and  _246
REMARK  102  A    between atoms: _249  and  _251
REMARK  103  A    between atoms: _251  and  _252
REMARK  104  A    between atoms: _251  and  _254
REMARK  105  A    between atoms: _254  and  _255
REMARK  106  A    between atoms: _258  and  _260
REMARK  107  A    between atoms: _260  and  _261
REMARK  108  A    between atoms: _263  and  _265
REMARK  109  A    between atoms: _265  and  _266
REMARK  110  A    between atoms: _265  and  _268
REMARK  111  A    between atoms: _268  and  _269
REMARK  112  A    between atoms: _269  and  _270
REMARK  113  A    between atoms: _270  and  _271
REMARK  114  A    between atoms: _280  and  _282
REMARK  115  A    between atoms: _282  and  _283
REMARK  116  A    between atoms: _282  and  _285
REMARK  117  A    between atoms: _285  and  _286
REMARK  118  A    between atoms: _286  and  _287
REMARK  119  A    between atoms: _287  and  _288
REMARK  120  A    between atoms: _297  and  _299
REMARK  121  A    between atoms: _299  and  _300
REMARK  122  A    between atoms: _299  and  _302
REMARK  123  A    between atoms: _302  and  _303
REMARK  124  A    between atoms: _306  and  _308
REMARK  125  A    between atoms: _308  and  _309
REMARK  126  A    between atoms: _308  and  _311
REMARK  127  A    between atoms: _311  and  _312
REMARK  128  A    between atoms: _315  and  _317
REMARK  129  A    between atoms: _317  and  _318
REMARK  130  A    between atoms: _317  and  _320
REMARK  131  A    between atoms: _320  and  _321
REMARK  132  A    between atoms: _324  and  _326
REMARK  133  A    between atoms: _326  and  _327
REMARK  134  A    between atoms: _326  and  _329
REMARK  135  A    between atoms: _329  and  _330
REMARK  136  A    between atoms: _333  and  _335
REMARK  137  A    between atoms: _335  and  _336
REMARK  138  A    between atoms: _338  and  _340
REMARK  139  A    between atoms: _340  and  _341
REMARK  140  A    between atoms: _344  and  _346
REMARK  141  A    between atoms: _346  and  _347
REMARK  142  A    between atoms: _346  and  _349
REMARK  143  A    between atoms: _349  and  _350
REMARK  144  A    between atoms: _353  and  _355
REMARK  145  A    between atoms: _355  and  _356
REMARK  146  A    between atoms: _355  and  _358
REMARK  147  A    between atoms: _358  and  _359
REMARK  148  A    between atoms: _362  and  _364
REMARK  149  A    between atoms: _364  and  _365
REMARK  150  A    between atoms: _364  and  _367
REMARK  151  A    between atoms: _367  and  _368
REMARK  152  A    between atoms: _371  and  _373
REMARK  153  A    between atoms: _373  and  _374
REMARK  154  A    between atoms: _373  and  _376
REMARK  155  A    between atoms: _379  and  _381
REMARK  156  A    between atoms: _381  and  _382
REMARK  157  A    between atoms: _381  and  _384
REMARK  158  A    between atoms: _384  and  _385
REMARK  159  A    between atoms: _388  and  _390
REMARK  160  A    between atoms: _390  and  _391
REMARK  161  A    between atoms: _390  and  _393
REMARK  162  A    between atoms: _393  and  _394
REMARK  163  A    between atoms: _394  and  _395
REMARK  164  A    between atoms: _395  and  _396
REMARK  165  A    between atoms: _396  and  _397
REMARK  166  A    between atoms: _401  and  _403
REMARK  167  A    between atoms: _403  and  _404
REMARK  168  A    between atoms: _403  and  _406
REMARK  169  A    between atoms: _406  and  _407
REMARK  170  A    between atoms: _407  and  _408
REMARK  171  A    between atoms: _410  and  _412
REMARK  172  A    between atoms: _412  and  _413
REMARK  173  A    between atoms: _412  and  _415
REMARK  174  A    between atoms: _415  and  _416
REMARK  175  A    between atoms: _419  and  _421
REMARK  176  A    between atoms: _421  and  _422
REMARK  177  A    between atoms: _424  and  _426
REMARK  178  A    between atoms: _426  and  _427
REMARK  179  A    between atoms: _429  and  _431
REMARK  180  A    between atoms: _431  and  _432
REMARK  181  A    between atoms: _431  and  _434
REMARK  182  A    between atoms: _434  and  _435
REMARK  183  A    between atoms: _438  and  _440
REMARK  184  A    between atoms: _440  and  _441
REMARK  185  A    between atoms: _443  and  _445
REMARK  186  A    between atoms: _445  and  _446
REMARK  187  A    between atoms: _448  and  _450
REMARK  188  A    between atoms: _450  and  _451
REMARK  189  A    between atoms: _450  and  _453
REMARK  190  A    between atoms: _453  and  _454
REMARK  191  A    between atoms: _460  and  _462
REMARK  192  A    between atoms: _462  and  _463
REMARK  193  A    between atoms: _462  and  _465
REMARK  194  A    between atoms: _465  and  _466
REMARK  195  A    between atoms: _469  and  _471
REMARK  196  A    between atoms: _471  and  _472
REMARK  197  A    between atoms: _471  and  _474
REMARK  198  A    between atoms: _477  and  _479
REMARK  199  A    between atoms: _479  and  _480
REMARK  200  A    between atoms: _479  and  _482
REMARK  201  A    between atoms: _482  and  _483
REMARK  202  A    between atoms: _487  and  _488
REMARK  203  A    between atoms: _493  and  _495
REMARK  204  A    between atoms: _495  and  _496
REMARK  205  A    between atoms: _495  and  _498
REMARK  206  A    between atoms: _498  and  _499
REMARK  207  A    between atoms: _503  and  _504
REMARK  208  A    between atoms: _509  and  _511
REMARK  209  A    between atoms: _511  and  _512
REMARK  210  A    between atoms: _511  and  _514
REMARK  211  A    between atoms: _517  and  _519
REMARK  212  A    between atoms: _519  and  _520
REMARK  213  A    between atoms: _519  and  _522
REMARK  214  A    between atoms: _522  and  _523
REMARK  215  A    between atoms: _528  and  _530
REMARK  216  A    between atoms: _530  and  _531
REMARK  217  A    between atoms: _530  and  _533
REMARK  218  A    between atoms: _533  and  _534
REMARK  219  A    between atoms: _537  and  _539
REMARK  220  A    between atoms: _539  and  _540
REMARK  221  A    between atoms: _539  and  _542
REMARK  222  A    between atoms: _542  and  _543
REMARK  223  A    between atoms: _546  and  _548
REMARK  224  A    between atoms: _548  and  _549
REMARK  225  A    between atoms: _551  and  _553
REMARK  226  A    between atoms: _553  and  _554
REMARK  227  A    between atoms: _553  and  _556
REMARK  228  A    between atoms: _556  and  _557
REMARK  229  A    between atoms: _557  and  _558
REMARK  230  A    between atoms: _558  and  _559
REMARK  231  A    between atoms: _568  and  _570
REMARK  232  A    between atoms: _570  and  _571
REMARK  233  A    between atoms: _570  and  _573
REMARK  234  A    between atoms: _573  and  _574
REMARK                            x       y       z     vdW  Elec       q    Type
REMARK                         _______ _______ _______ _____ _____    ______ ____
ROOT
ATOM      1  O   HOH     1      20.689 -18.003 -10.299  0.00  0.00    +0.000 OA
ENDROOT
TORSDOF 0
REMARK  Name = ../refined-set-2016/2o4s/2o4s_pocket.pdb
REMARK  234 active torsions:
REMARK  status: ('A' for Active; 'I' for Inactive)
REMARK    1  A    between atoms: _1  and  _3
REMARK    2  A    between atoms: _3  and  _4
REMARK    3  A    between atoms: _3  and  _6
REMARK    4  A    between atoms: _6  and  _7
REMARK    5  A    between atoms: _7  and  _8
REMARK    6  A    between atoms: _8  and  _9
REMARK    7  A    between atoms: _18  and  _20
REMARK    8  A    between atoms: _20  and  _21
REMARK    9  A    between atoms: _20  and  _23
REMARK   10  A    between atoms: _23  and  _24
REMARK   11  A    between atoms: _27  and  _29
REMARK   12  A    between atoms: _29  and  _30
REMARK   13  A    between atoms: _29  and  _32
REMARK   14  A    between atoms: _32  and  _33
REMARK   15  A    between atoms: _36  and  _38
REMARK   16  A    between atoms: _38  and  _39
REMARK   17  A    between atoms: _38  and  _41
REMARK   18  A    between atoms: _41  and  _42
REMARK   19  A    between atoms: _45  and  _47
REMARK   20  A    between atoms: _47  and  _48
REMARK   21  A    between atoms: _47  and  _50
REMARK   22  A    between atoms: _50  and  _51
REMARK   23  A    between atoms: _54  and  _56
REMARK   24  A    between atoms: _56  and  _57
REMARK   25  A    between atoms: _59  and  _61
REMARK   26  A    between atoms: _61  and  _62
REMARK   27  A    between atoms: _65  and  _67
REMARK   28  A    between atoms: _67  and  _68
REMARK   29  A    between atoms: _67  and  _70
REMARK   30  A    between atoms: _70  and  _71
REMARK   31  A    between atoms: _74  and  _76
REMARK   32  A    between atoms: _76  and  _77
REMARK   33  A    between atoms: _76  and  _79
REMARK   34  A    between atoms: _79  and  _80
REMARK   35  A    between atoms: _83  and  _85
REMARK   36  A    between atoms: _85  and  _86
REMARK   37  A    between atoms: _85  and  _88
REMARK   38  A    between atoms: _88  and  _89
REMARK   39  A    between atoms: _92  and  _94
REMARK   40  A    between atoms: _94  and  _95
REMARK   41  A    between atoms: _94  and  _97
REMARK   42  A    between atoms: _100  and  _102
REMARK   43  A    between atoms: _102  and  _103
REMARK   44  A    between atoms: _102  and  _105
REMARK   45  A    between atoms: _105  and  _106
REMARK   46  A    between atoms: _106  and  _107
REMARK   47  A    between atoms: _107  and  _108
REMARK   48  A    between atoms: _108  and  _109
REMARK   49  A    between atoms: _113  and  _115
REMARK   50  A    between atoms: _115  and  _116
REMARK   51  A    between atoms: _115  and  _118
REMARK   52  A    between atoms: _118  and  _119
REMARK   53  A    between atoms: _119  and  _120
REMARK   54  A    between atoms: _122  and  _124
REMARK   55  A    between atoms: _124  and  _125
REMARK   56  A    between atoms: _124  and  _127
REMARK   57  A    between atoms: _127  and  _128
REMARK   58  A    between atoms: _131  and  _133
REMARK   59  A    between atoms: _133  and  _134
REMARK   60  A    between atoms: _136  and  _138
REMARK   61  A    between atoms: _138  and  _139
REMARK   62  A    between atoms: _141  and  _143
REMARK   63  A    between atoms: _143  and  _144
REMARK   64  A    between atoms: _143  and  _146
REMARK   65  A    between atoms: _146  and  _147
REMARK   66  A    between atoms: _150  and  _152
REMARK   67  A    between atoms: _152  and  _153
REMARK   68  A    between atoms: _155  and  _157
REMARK   69  A    between atoms: _157  and  _158
REMARK   70  A    between atoms: _160  and  _162
REMARK   71  A    between atoms: _162  and  _163
REMARK   72  A    between atoms: _162  and  _165
REMARK   73  A    between atoms: _165  and  _166
REMARK   74  A    between atoms: _172  and  _174
REMARK   75  A    between atoms: _174  and  _175
REMARK   76  A    between atoms: _174  and  _177
REMARK   77  A    between atoms: _177  and  _178
REMARK   78  A    between atoms: _181  and  _183
REMARK   79  A    between atoms: _183  and  _184
REMARK   80  A    between atoms: _183  and  _186
REMARK   81  A    between atoms: _189  and  _191
REMARK   82  A    between atoms: _191  and  _192
REMARK   83  A    between atoms: _191  and  _194
REMARK   84  A    between atoms: _194  and  _195
REMARK   85  A    between atoms: _199  and  _200
REMARK   86  A    between atoms: _205  and  _207
REMARK   87  A    between atoms: _207  and  _208
REMARK   88  A    between atoms: _207  and  _210
REMARK   89  A    between atoms: _210  and  _211
REMARK   90  A    between atoms: _215  and  _216
REMARK   91  A    between atoms: _221  and  _223
REMARK   92  A    between atoms: _223  and  _224
REMARK   93  A    between atoms: _223  and  _226
REMARK   94  A    between atoms: _229  and  _231
REMARK   95  A    between atoms: _231  and  _232
REMARK   96  A    between atoms: _231  and  _234
REMARK   97  A    between atoms: _234  and  _235
REMARK   98  A    between atoms: _240  and  _242
REMARK   99  A    between atoms: _242  and  _243
REMARK  100  A    between atoms: _242  and  _245
REMARK  101  A    between atoms: _245  and  _246
REMARK  102  A    between atoms: _249  and  _251
REMARK  103  A    between atoms: _251  and  _252
REMARK  104  A    between atoms: _251  and  _254
REMARK  105  A    between atoms: _254  and  _255
REMARK  106  A    between atoms: _258  and  _260
REMARK  107  A    between atoms: _260  and  _261
REMARK  108  A    between atoms: _263  and  _265
REMARK  109  A    between atoms: _265  and  _266
REMARK  110  A    between atoms: _265  and  _268
REMARK  111  A    between atoms: _268  and  _269
REMARK  112  A    between atoms: _269  and  _270
REMARK  113  A    between atoms: _270  and  _271
REMARK  114  A    between atoms: _280  and  _282
REMARK  115  A    between atoms: _282  and  _283
REMARK  116  A    between atoms: _282  and  _285
REMARK  117  A    between atoms: _285  and  _286
REMARK  118  A    between atoms: _286  and  _287
REMARK  119  A    between atoms: _287  and  _288
REMARK  120  A    between atoms: _297  and  _299
REMARK  121  A    between atoms: _299  and  _300
REMARK  122  A    between atoms: _299  and  _302
REMARK  123  A    between atoms: _302  and  _303
REMARK  124  A    between atoms: _306  and  _308
REMARK  125  A    between atoms: _308  and  _309
REMARK  126  A    between atoms: _308  and  _311
REMARK  127  A    between atoms: _311  and  _312
REMARK  128  A    between atoms: _315  and  _317
REMARK  129  A    between atoms: _317  and  _318
REMARK  130  A    between atoms: _317  and  _320
REMARK  131  A    between atoms: _320  and  _321
REMARK  132  A    between atoms: _324  and  _326
REMARK  133  A    between atoms: _326  and  _327
REMARK  134  A    between atoms: _326  and  _329
REMARK  135  A    between atoms: _329  and  _330
REMARK  136  A    between atoms: _333  and  _335
REMARK  137  A    between atoms: _335  and  _336
REMARK  138  A    between atoms: _338  and  _340
REMARK  139  A    between atoms: _340  and  _341
REMARK  140  A    between atoms: _344  and  _346
REMARK  141  A    between atoms: _346  and  _347
REMARK  142  A    between atoms: _346  and  _349
REMARK  143  A    between atoms: _349  and  _350
REMARK  144  A    between atoms: _353  and  _355
REMARK  145  A    between atoms: _355  and  _356
REMARK  146  A    between atoms: _355  and  _358
REMARK  147  A    between atoms: _358  and  _359
REMARK  148  A    between atoms: _362  and  _364
REMARK  149  A    between atoms: _364  and  _365
REMARK  150  A    between atoms: _364  and  _367
REMARK  151  A    between atoms: _367  and  _368
REMARK  152  A    between atoms: _371  and  _373
REMARK  153  A    between atoms: _373  and  _374
REMARK  154  A    between atoms: _373  and  _376
REMARK  155  A    between atoms: _379  and  _381
REMARK  156  A    between atoms: _381  and  _382
REMARK  157  A    between atoms: _381  and  _384
REMARK  158  A    between atoms: _384  and  _385
REMARK  159  A    between atoms: _388  and  _390
REMARK  160  A    between atoms: _390  and  _391
REMARK  161  A    between atoms: _390  and  _393
REMARK  162  A    between atoms: _393  and  _394
REMARK  163  A    between atoms: _394  and  _395
REMARK  164  A    between atoms: _395  and  _396
REMARK  165  A    between atoms: _396  and  _397
REMARK  166  A    between atoms: _401  and  _403
REMARK  167  A    between atoms: _403  and  _404
REMARK  168  A    between atoms: _403  and  _406
REMARK  169  A    between atoms: _406  and  _407
REMARK  170  A    between atoms: _407  and  _408
REMARK  171  A    between atoms: _410  and  _412
REMARK  172  A    between atoms: _412  and  _413
REMARK  173  A    between atoms: _412  and  _415
REMARK  174  A    between atoms: _415  and  _416
REMARK  175  A    between atoms: _419  and  _421
REMARK  176  A    between atoms: _421  and  _422
REMARK  177  A    between atoms: _424  and  _426
REMARK  178  A    between atoms: _426  and  _427
REMARK  179  A    between atoms: _429  and  _431
REMARK  180  A    between atoms: _431  and  _432
REMARK  181  A    between atoms: _431  and  _434
REMARK  182  A    between atoms: _434  and  _435
REMARK  183  A    between atoms: _438  and  _440
REMARK  184  A    between atoms: _440  and  _441
REMARK  185  A    between atoms: _443  and  _445
REMARK  186  A    between atoms: _445  and  _446
REMARK  187  A    between atoms: _448  and  _450
REMARK  188  A    between atoms: _450  and  _451
REMARK  189  A    between atoms: _450  and  _453
REMARK  190  A    between atoms: _453  and  _454
REMARK  191  A    between atoms: _460  and  _462
REMARK  192  A    between atoms: _462  and  _463
REMARK  193  A    between atoms: _462  and  _465
REMARK  194  A    between atoms: _465  and  _466
REMARK  195  A    between atoms: _469  and  _471
REMARK  196  A    between atoms: _471  and  _472
REMARK  197  A    between atoms: _471  and  _474
REMARK  198  A    between atoms: _477  and  _479
REMARK  199  A    between atoms: _479  and  _480
REMARK  200  A    between atoms: _479  and  _482
REMARK  201  A    between atoms: _482  and  _483
REMARK  202  A    between atoms: _487  and  _488
REMARK  203  A    between atoms: _493  and  _495
REMARK  204  A    between atoms: _495  and  _496
REMARK  205  A    between atoms: _495  and  _498
REMARK  206  A    between atoms: _498  and  _499
REMARK  207  A    between atoms: _503  and  _504
REMARK  208  A    between atoms: _509  and  _511
REMARK  209  A    between atoms: _511  and  _512
REMARK  210  A    between atoms: _511  and  _514
REMARK  211  A    between atoms: _517  and  _519
REMARK  212  A    between atoms: _519  and  _520
REMARK  213  A    between atoms: _519  and  _522
REMARK  214  A    between atoms: _522  and  _523
REMARK  215  A    between atoms: _528  and  _530
REMARK  216  A    between atoms: _530  and  _531
REMARK  217  A    between atoms: _530  and  _533
REMARK  218  A    between atoms: _533  and  _534
REMARK  219  A    between atoms: _537  and  _539
REMARK  220  A    between atoms: _539  and  _540
REMARK  221  A    between atoms: _539  and  _542
REMARK  222  A    between atoms: _542  and  _543
REMARK  223  A    between atoms: _546  and  _548
REMARK  224  A    between atoms: _548  and  _549
REMARK  225  A    between atoms: _551  and  _553
REMARK  226  A    between atoms: _553  and  _554
REMARK  227  A    between atoms: _553  and  _556
REMARK  228  A    between atoms: _556  and  _557
REMARK  229  A    between atoms: _557  and  _558
REMARK  230  A    between atoms: _558  and  _559
REMARK  231  A    between atoms: _568  and  _570
REMARK  232  A    between atoms: _570  and  _571
REMARK  233  A    between atoms: _570  and  _573
REMARK  234  A    between atoms: _573  and  _574
REMARK                            x       y       z     vdW  Elec       q    Type
REMARK                         _______ _______ _______ _____ _____    ______ ____
ROOT
ATOM      1  O   HOH     1      10.973 -12.401 -21.676  0.00  0.00    +0.000 OA
ENDROOT
TORSDOF 0
REMARK  Name = ../refined-set-2016/2o4s/2o4s_pocket.pdb
REMARK  234 active torsions:
REMARK  status: ('A' for Active; 'I' for Inactive)
REMARK    1  A    between atoms: _1  and  _3
REMARK    2  A    between atoms: _3  and  _4
REMARK    3  A    between atoms: _3  and  _6
REMARK    4  A    between atoms: _6  and  _7
REMARK    5  A    between atoms: _7  and  _8
REMARK    6  A    between atoms: _8  and  _9
REMARK    7  A    between atoms: _18  and  _20
REMARK    8  A    between atoms: _20  and  _21
REMARK    9  A    between atoms: _20  and  _23
REMARK   10  A    between atoms: _23  and  _24
REMARK   11  A    between atoms: _27  and  _29
REMARK   12  A    between atoms: _29  and  _30
REMARK   13  A    between atoms: _29  and  _32
REMARK   14  A    between atoms: _32  and  _33
REMARK   15  A    between atoms: _36  and  _38
REMARK   16  A    between atoms: _38  and  _39
REMARK   17  A    between atoms: _38  and  _41
REMARK   18  A    between atoms: _41  and  _42
REMARK   19  A    between atoms: _45  and  _47
REMARK   20  A    between atoms: _47  and  _48
REMARK   21  A    between atoms: _47  and  _50
REMARK   22  A    between atoms: _50  and  _51
REMARK   23  A    between atoms: _54  and  _56
REMARK   24  A    between atoms: _56  and  _57
REMARK   25  A    between atoms: _59  and  _61
REMARK   26  A    between atoms: _61  and  _62
REMARK   27  A    between atoms: _65  and  _67
REMARK   28  A    between atoms: _67  and  _68
REMARK   29  A    between atoms: _67  and  _70
REMARK   30  A    between atoms: _70  and  _71
REMARK   31  A    between atoms: _74  and  _76
REMARK   32  A    between atoms: _76  and  _77
REMARK   33  A    between atoms: _76  and  _79
REMARK   34  A    between atoms: _79  and  _80
REMARK   35  A    between atoms: _83  and  _85
REMARK   36  A    between atoms: _85  and  _86
REMARK   37  A    between atoms: _85  and  _88
REMARK   38  A    between atoms: _88  and  _89
REMARK   39  A    between atoms: _92  and  _94
REMARK   40  A    between atoms: _94  and  _95
REMARK   41  A    between atoms: _94  and  _97
REMARK   42  A    between atoms: _100  and  _102
REMARK   43  A    between atoms: _102  and  _103
REMARK   44  A    between atoms: _102  and  _105
REMARK   45  A    between atoms: _105  and  _106
REMARK   46  A    between atoms: _106  and  _107
REMARK   47  A    between atoms: _107  and  _108
REMARK   48  A    between atoms: _108  and  _109
REMARK   49  A    between atoms: _113  and  _115
REMARK   50  A    between atoms: _115  and  _116
REMARK   51  A    between atoms: _115  and  _118
REMARK   52  A    between atoms: _118  and  _119
REMARK   53  A    between atoms: _119  and  _120
REMARK   54  A    between atoms: _122  and  _124
REMARK   55  A    between atoms: _124  and  _125
REMARK   56  A    between atoms: _124  and  _127
REMARK   57  A    between atoms: _127  and  _128
REMARK   58  A    between atoms: _131  and  _133
REMARK   59  A    between atoms: _133  and  _134
REMARK   60  A    between atoms: _136  and  _138
REMARK   61  A    between atoms: _138  and  _139
REMARK   62  A    between atoms: _141  and  _143
REMARK   63  A    between atoms: _143  and  _144
REMARK   64  A    between atoms: _143  and  _146
REMARK   65  A    between atoms: _146  and  _147
REMARK   66  A    between atoms: _150  and  _152
REMARK   67  A    between atoms: _152  and  _153
REMARK   68  A    between atoms: _155  and  _157
REMARK   69  A    between atoms: _157  and  _158
REMARK   70  A    between atoms: _160  and  _162
REMARK   71  A    between atoms: _162  and  _163
REMARK   72  A    between atoms: _162  and  _165
REMARK   73  A    between atoms: _165  and  _166
REMARK   74  A    between atoms: _172  and  _174
REMARK   75  A    between atoms: _174  and  _175
REMARK   76  A    between atoms: _174  and  _177
REMARK   77  A    between atoms: _177  and  _178
REMARK   78  A    between atoms: _181  and  _183
REMARK   79  A    between atoms: _183  and  _184
REMARK   80  A    between atoms: _183  and  _186
REMARK   81  A    between atoms: _189  and  _191
REMARK   82  A    between atoms: _191  and  _192
REMARK   83  A    between atoms: _191  and  _194
REMARK   84  A    between atoms: _194  and  _195
REMARK   85  A    between atoms: _199  and  _200
REMARK   86  A    between atoms: _205  and  _207
REMARK   87  A    between atoms: _207  and  _208
REMARK   88  A    between atoms: _207  and  _210
REMARK   89  A    between atoms: _210  and  _211
REMARK   90  A    between atoms: _215  and  _216
REMARK   91  A    between atoms: _221  and  _223
REMARK   92  A    between atoms: _223  and  _224
REMARK   93  A    between atoms: _223  and  _226
REMARK   94  A    between atoms: _229  and  _231
REMARK   95  A    between atoms: _231  and  _232
REMARK   96  A    between atoms: _231  and  _234
REMARK   97  A    between atoms: _234  and  _235
REMARK   98  A    between atoms: _240  and  _242
REMARK   99  A    between atoms: _242  and  _243
REMARK  100  A    between atoms: _242  and  _245
REMARK  101  A    between atoms: _245  and  _246
REMARK  102  A    between atoms: _249  and  _251
REMARK  103  A    between atoms: _251  and  _252
REMARK  104  A    between atoms: _251  and  _254
REMARK  105  A    between atoms: _254  and  _255
REMARK  106  A    between atoms: _258  and  _260
REMARK  107  A    between atoms: _260  and  _261
REMARK  108  A    between atoms: _263  and  _265
REMARK  109  A    between atoms: _265  and  _266
REMARK  110  A    between atoms: _265  and  _268
REMARK  111  A    between atoms: _268  and  _269
REMARK  112  A    between atoms: _269  and  _270
REMARK  113  A    between atoms: _270  and  _271
REMARK  114  A    between atoms: _280  and  _282
REMARK  115  A    between atoms: _282  and  _283
REMARK  116  A    between atoms: _282  and  _285
REMARK  117  A    between atoms: _285  and  _286
REMARK  118  A    between atoms: _286  and  _287
REMARK  119  A    between atoms: _287  and  _288
REMARK  120  A    between atoms: _297  and  _299
REMARK  121  A    between atoms: _299  and  _300
REMARK  122  A    between atoms: _299  and  _302
REMARK  123  A    between atoms: _302  and  _303
REMARK  124  A    between atoms: _306  and  _308
REMARK  125  A    between atoms: _308  and  _309
REMARK  126  A    between atoms: _308  and  _311
REMARK  127  A    between atoms: _311  and  _312
REMARK  128  A    between atoms: _315  and  _317
REMARK  129  A    between atoms: _317  and  _318
REMARK  130  A    between atoms: _317  and  _320
REMARK  131  A    between atoms: _320  and  _321
REMARK  132  A    between atoms: _324  and  _326
REMARK  133  A    between atoms: _326  and  _327
REMARK  134  A    between atoms: _326  and  _329
REMARK  135  A    between atoms: _329  and  _330
REMARK  136  A    between atoms: _333  and  _335
REMARK  137  A    between atoms: _335  and  _336
REMARK  138  A    between atoms: _338  and  _340
REMARK  139  A    between atoms: _340  and  _341
REMARK  140  A    between atoms: _344  and  _346
REMARK  141  A    between atoms: _346  and  _347
REMARK  142  A    between atoms: _346  and  _349
REMARK  143  A    between atoms: _349  and  _350
REMARK  144  A    between atoms: _353  and  _355
REMARK  145  A    between atoms: _355  and  _356
REMARK  146  A    between atoms: _355  and  _358
REMARK  147  A    between atoms: _358  and  _359
REMARK  148  A    between atoms: _362  and  _364
REMARK  149  A    between atoms: _364  and  _365
REMARK  150  A    between atoms: _364  and  _367
REMARK  151  A    between atoms: _367  and  _368
REMARK  152  A    between atoms: _371  and  _373
REMARK  153  A    between atoms: _373  and  _374
REMARK  154  A    between atoms: _373  and  _376
REMARK  155  A    between atoms: _379  and  _381
REMARK  156  A    between atoms: _381  and  _382
REMARK  157  A    between atoms: _381  and  _384
REMARK  158  A    between atoms: _384  and  _385
REMARK  159  A    between atoms: _388  and  _390
REMARK  160  A    between atoms: _390  and  _391
REMARK  161  A    between atoms: _390  and  _393
REMARK  162  A    between atoms: _393  and  _394
REMARK  163  A    between atoms: _394  and  _395
REMARK  164  A    between atoms: _395  and  _396
REMARK  165  A    between atoms: _396  and  _397
REMARK  166  A    between atoms: _401  and  _403
REMARK  167  A    between atoms: _403  and  _404
REMARK  168  A    between atoms: _403  and  _406
REMARK  169  A    between atoms: _406  and  _407
REMARK  170  A    between atoms: _407  and  _408
REMARK  171  A    between atoms: _410  and  _412
REMARK  172  A    between atoms: _412  and  _413
REMARK  173  A    between atoms: _412  and  _415
REMARK  174  A    between atoms: _415  and  _416
REMARK  175  A    between atoms: _419  and  _421
REMARK  176  A    between atoms: _421  and  _422
REMARK  177  A    between atoms: _424  and  _426
REMARK  178  A    between atoms: _426  and  _427
REMARK  179  A    between atoms: _429  and  _431
REMARK  180  A    between atoms: _431  and  _432
REMARK  181  A    between atoms: _431  and  _434
REMARK  182  A    between atoms: _434  and  _435
REMARK  183  A    between atoms: _438  and  _440
REMARK  184  A    between atoms: _440  and  _441
REMARK  185  A    between atoms: _443  and  _445
REMARK  186  A    between atoms: _445  and  _446
REMARK  187  A    between atoms: _448  and  _450
REMARK  188  A    between atoms: _450  and  _451
REMARK  189  A    between atoms: _450  and  _453
REMARK  190  A    between atoms: _453  and  _454
REMARK  191  A    between atoms: _460  and  _462
REMARK  192  A    between atoms: _462  and  _463
REMARK  193  A    between atoms: _462  and  _465
REMARK  194  A    between atoms: _465  and  _466
REMARK  195  A    between atoms: _469  and  _471
REMARK  196  A    between atoms: _471  and  _472
REMARK  197  A    between atoms: _471  and  _474
REMARK  198  A    between atoms: _477  and  _479
REMARK  199  A    between atoms: _479  and  _480
REMARK  200  A    between atoms: _479  and  _482
REMARK  201  A    between atoms: _482  and  _483
REMARK  202  A    between atoms: _487  and  _488
REMARK  203  A    between atoms: _493  and  _495
REMARK  204  A    between atoms: _495  and  _496
REMARK  205  A    between atoms: _495  and  _498
REMARK  206  A    between atoms: _498  and  _499
REMARK  207  A    between atoms: _503  and  _504
REMARK  208  A    between atoms: _509  and  _511
REMARK  209  A    between atoms: _511  and  _512
REMARK  210  A    between atoms: _511  and  _514
REMARK  211  A    between atoms: _517  and  _519
REMARK  212  A    between atoms: _519  and  _520
REMARK  213  A    between atoms: _519  and  _522
REMARK  214  A    between atoms: _522  and  _523
REMARK  215  A    between atoms: _528  and  _530
REMARK  216  A    between atoms: _530  and  _531
REMARK  217  A    between atoms: _530  and  _533
REMARK  218  A    between atoms: _533  and  _534
REMARK  219  A    between atoms: _537  and  _539
REMARK  220  A    between atoms: _539  and  _540
REMARK  221  A    between atoms: _539  and  _542
REMARK  222  A    between atoms: _542  and  _543
REMARK  223  A    between atoms: _546  and  _548
REMARK  224  A    between atoms: _548  and  _549
REMARK  225  A    between atoms: _551  and  _553
REMARK  226  A    between atoms: _553  and  _554
REMARK  227  A    between atoms: _553  and  _556
REMARK  228  A    between atoms: _556  and  _557
REMARK  229  A    between atoms: _557  and  _558
REMARK  230  A    between atoms: _558  and  _559
REMARK  231  A    between atoms: _568  and  _570
REMARK  232  A    between atoms: _570  and  _571
REMARK  233  A    between atoms: _570  and  _573
REMARK  234  A    between atoms: _573  and  _574
REMARK                            x       y       z     vdW  Elec       q    Type
REMARK                         _______ _______ _______ _____ _____    ______ ____
ROOT
ATOM      1  O   HOH     1       8.606  -9.579 -10.790  0.00  0.00    +0.000 OA
ENDROOT
TORSDOF 0
REMARK  Name = ../refined-set-2016/2o4s/2o4s_pocket.pdb
REMARK  234 active torsions:
REMARK  status: ('A' for Active; 'I' for Inactive)
REMARK    1  A    between atoms: _1  and  _3
REMARK    2  A    between atoms: _3  and  _4
REMARK    3  A    between atoms: _3  and  _6
REMARK    4  A    between atoms: _6  and  _7
REMARK    5  A    between atoms: _7  and  _8
REMARK    6  A    between atoms: _8  and  _9
REMARK    7  A    between atoms: _18  and  _20
REMARK    8  A    between atoms: _20  and  _21
REMARK    9  A    between atoms: _20  and  _23
REMARK   10  A    between atoms: _23  and  _24
REMARK   11  A    between atoms: _27  and  _29
REMARK   12  A    between atoms: _29  and  _30
REMARK   13  A    between atoms: _29  and  _32
REMARK   14  A    between atoms: _32  and  _33
REMARK   15  A    between atoms: _36  and  _38
REMARK   16  A    between atoms: _38  and  _39
REMARK   17  A    between atoms: _38  and  _41
REMARK   18  A    between atoms: _41  and  _42
REMARK   19  A    between atoms: _45  and  _47
REMARK   20  A    between atoms: _47  and  _48
REMARK   21  A    between atoms: _47  and  _50
REMARK   22  A    between atoms: _50  and  _51
REMARK   23  A    between atoms: _54  and  _56
REMARK   24  A    between atoms: _56  and  _57
REMARK   25  A    between atoms: _59  and  _61
REMARK   26  A    between atoms: _61  and  _62
REMARK   27  A    between atoms: _65  and  _67
REMARK   28  A    between atoms: _67  and  _68
REMARK   29  A    between atoms: _67  and  _70
REMARK   30  A    between atoms: _70  and  _71
REMARK   31  A    between atoms: _74  and  _76
REMARK   32  A    between atoms: _76  and  _77
REMARK   33  A    between atoms: _76  and  _79
REMARK   34  A    between atoms: _79  and  _80
REMARK   35  A    between atoms: _83  and  _85
REMARK   36  A    between atoms: _85  and  _86
REMARK   37  A    between atoms: _85  and  _88
REMARK   38  A    between atoms: _88  and  _89
REMARK   39  A    between atoms: _92  and  _94
REMARK   40  A    between atoms: _94  and  _95
REMARK   41  A    between atoms: _94  and  _97
REMARK   42  A    between atoms: _100  and  _102
REMARK   43  A    between atoms: _102  and  _103
REMARK   44  A    between atoms: _102  and  _105
REMARK   45  A    between atoms: _105  and  _106
REMARK   46  A    between atoms: _106  and  _107
REMARK   47  A    between atoms: _107  and  _108
REMARK   48  A    between atoms: _108  and  _109
REMARK   49  A    between atoms: _113  and  _115
REMARK   50  A    between atoms: _115  and  _116
REMARK   51  A    between atoms: _115  and  _118
REMARK   52  A    between atoms: _118  and  _119
REMARK   53  A    between atoms: _119  and  _120
REMARK   54  A    between atoms: _122  and  _124
REMARK   55  A    between atoms: _124  and  _125
REMARK   56  A    between atoms: _124  and  _127
REMARK   57  A    between atoms: _127  and  _128
REMARK   58  A    between atoms: _131  and  _133
REMARK   59  A    between atoms: _133  and  _134
REMARK   60  A    between atoms: _136  and  _138
REMARK   61  A    between atoms: _138  and  _139
REMARK   62  A    between atoms: _141  and  _143
REMARK   63  A    between atoms: _143  and  _144
REMARK   64  A    between atoms: _143  and  _146
REMARK   65  A    between atoms: _146  and  _147
REMARK   66  A    between atoms: _150  and  _152
REMARK   67  A    between atoms: _152  and  _153
REMARK   68  A    between atoms: _155  and  _157
REMARK   69  A    between atoms: _157  and  _158
REMARK   70  A    between atoms: _160  and  _162
REMARK   71  A    between atoms: _162  and  _163
REMARK   72  A    between atoms: _162  and  _165
REMARK   73  A    between atoms: _165  and  _166
REMARK   74  A    between atoms: _172  and  _174
REMARK   75  A    between atoms: _174  and  _175
REMARK   76  A    between atoms: _174  and  _177
REMARK   77  A    between atoms: _177  and  _178
REMARK   78  A    between atoms: _181  and  _183
REMARK   79  A    between atoms: _183  and  _184
REMARK   80  A    between atoms: _183  and  _186
REMARK   81  A    between atoms: _189  and  _191
REMARK   82  A    between atoms: _191  and  _192
REMARK   83  A    between atoms: _191  and  _194
REMARK   84  A    between atoms: _194  and  _195
REMARK   85  A    between atoms: _199  and  _200
REMARK   86  A    between atoms: _205  and  _207
REMARK   87  A    between atoms: _207  and  _208
REMARK   88  A    between atoms: _207  and  _210
REMARK   89  A    between atoms: _210  and  _211
REMARK   90  A    between atoms: _215  and  _216
REMARK   91  A    between atoms: _221  and  _223
REMARK   92  A    between atoms: _223  and  _224
REMARK   93  A    between atoms: _223  and  _226
REMARK   94  A    between atoms: _229  and  _231
REMARK   95  A    between atoms: _231  and  _232
REMARK   96  A    between atoms: _231  and  _234
REMARK   97  A    between atoms: _234  and  _235
REMARK   98  A    between atoms: _240  and  _242
REMARK   99  A    between atoms: _242  and  _243
REMARK  100  A    between atoms: _242  and  _245
REMARK  101  A    between atoms: _245  and  _246
REMARK  102  A    between atoms: _249  and  _251
REMARK  103  A    between atoms: _251  and  _252
REMARK  104  A    between atoms: _251  and  _254
REMARK  105  A    between atoms: _254  and  _255
REMARK  106  A    between atoms: _258  and  _260
REMARK  107  A    between atoms: _260  and  _261
REMARK  108  A    between atoms: _263  and  _265
REMARK  109  A    between atoms: _265  and  _266
REMARK  110  A    between atoms: _265  and  _268
REMARK  111  A    between atoms: _268  and  _269
REMARK  112  A    between atoms: _269  and  _270
REMARK  113  A    between atoms: _270  and  _271
REMARK  114  A    between atoms: _280  and  _282
REMARK  115  A    between atoms: _282  and  _283
REMARK  116  A    between atoms: _282  and  _285
REMARK  117  A    between atoms: _285  and  _286
REMARK  118  A    between atoms: _286  and  _287
REMARK  119  A    between atoms: _287  and  _288
REMARK  120  A    between atoms: _297  and  _299
REMARK  121  A    between atoms: _299  and  _300
REMARK  122  A    between atoms: _299  and  _302
REMARK  123  A    between atoms: _302  and  _303
REMARK  124  A    between atoms: _306  and  _308
REMARK  125  A    between atoms: _308  and  _309
REMARK  126  A    between atoms: _308  and  _311
REMARK  127  A    between atoms: _311  and  _312
REMARK  128  A    between atoms: _315  and  _317
REMARK  129  A    between atoms: _317  and  _318
REMARK  130  A    between atoms: _317  and  _320
REMARK  131  A    between atoms: _320  and  _321
REMARK  132  A    between atoms: _324  and  _326
REMARK  133  A    between atoms: _326  and  _327
REMARK  134  A    between atoms: _326  and  _329
REMARK  135  A    between atoms: _329  and  _330
REMARK  136  A    between atoms: _333  and  _335
REMARK  137  A    between atoms: _335  and  _336
REMARK  138  A    between atoms: _338  and  _340
REMARK  139  A    between atoms: _340  and  _341
REMARK  140  A    between atoms: _344  and  _346
REMARK  141  A    between atoms: _346  and  _347
REMARK  142  A    between atoms: _346  and  _349
REMARK  143  A    between atoms: _349  and  _350
REMARK  144  A    between atoms: _353  and  _355
REMARK  145  A    between atoms: _355  and  _356
REMARK  146  A    between atoms: _355  and  _358
REMARK  147  A    between atoms: _358  and  _359
REMARK  148  A    between atoms: _362  and  _364
REMARK  149  A    between atoms: _364  and  _365
REMARK  150  A    between atoms: _364  and  _367
REMARK  151  A    between atoms: _367  and  _368
REMARK  152  A    between atoms: _371  and  _373
REMARK  153  A    between atoms: _373  and  _374
REMARK  154  A    between atoms: _373  and  _376
REMARK  155  A    between atoms: _379  and  _381
REMARK  156  A    between atoms: _381  and  _382
REMARK  157  A    between atoms: _381  and  _384
REMARK  158  A    between atoms: _384  and  _385
REMARK  159  A    between atoms: _388  and  _390
REMARK  160  A    between atoms: _390  and  _391
REMARK  161  A    between atoms: _390  and  _393
REMARK  162  A    between atoms: _393  and  _394
REMARK  163  A    between atoms: _394  and  _395
REMARK  164  A    between atoms: _395  and  _396
REMARK  165  A    between atoms: _396  and  _397
REMARK  166  A    between atoms: _401  and  _403
REMARK  167  A    between atoms: _403  and  _404
REMARK  168  A    between atoms: _403  and  _406
REMARK  169  A    between atoms: _406  and  _407
REMARK  170  A    between atoms: _407  and  _408
REMARK  171  A    between atoms: _410  and  _412
REMARK  172  A    between atoms: _412  and  _413
REMARK  173  A    between atoms: _412  and  _415
REMARK  174  A    between atoms: _415  and  _416
REMARK  175  A    between atoms: _419  and  _421
REMARK  176  A    between atoms: _421  and  _422
REMARK  177  A    between atoms: _424  and  _426
REMARK  178  A    between atoms: _426  and  _427
REMARK  179  A    between atoms: _429  and  _431
REMARK  180  A    between atoms: _431  and  _432
REMARK  181  A    between atoms: _431  and  _434
REMARK  182  A    between atoms: _434  and  _435
REMARK  183  A    between atoms: _438  and  _440
REMARK  184  A    between atoms: _440  and  _441
REMARK  185  A    between atoms: _443  and  _445
REMARK  186  A    between atoms: _445  and  _446
REMARK  187  A    between atoms: _448  and  _450
REMARK  188  A    between atoms: _450  and  _451
REMARK  189  A    between atoms: _450  and  _453
REMARK  190  A    between atoms: _453  and  _454
REMARK  191  A    between atoms: _460  and  _462
REMARK  192  A    between atoms: _462  and  _463
REMARK  193  A    between atoms: _462  and  _465
REMARK  194  A    between atoms: _465  and  _466
REMARK  195  A    between atoms: _469  and  _471
REMARK  196  A    between atoms: _471  and  _472
REMARK  197  A    between atoms: _471  and  _474
REMARK  198  A    between atoms: _477  and  _479
REMARK  199  A    between atoms: _479  and  _480
REMARK  200  A    between atoms: _479  and  _482
REMARK  201  A    between atoms: _482  and  _483
REMARK  202  A    between atoms: _487  and  _488
REMARK  203  A    between atoms: _493  and  _495
REMARK  204  A    between atoms: _495  and  _496
REMARK  205  A    between atoms: _495  and  _498
REMARK  206  A    between atoms: _498  and  _499
REMARK  207  A    between atoms: _503  and  _504
REMARK  208  A    between atoms: _509  and  _511
REMARK  209  A    between atoms: _511  and  _512
REMARK  210  A    between atoms: _511  and  _514
REMARK  211  A    between atoms: _517  and  _519
REMARK  212  A    between atoms: _519  and  _520
REMARK  213  A    between atoms: _519  and  _522
REMARK  214  A    between atoms: _522  and  _523
REMARK  215  A    between atoms: _528  and  _530
REMARK  216  A    between atoms: _530  and  _531
REMARK  217  A    between atoms: _530  and  _533
REMARK  218  A    between atoms: _533  and  _534
REMARK  219  A    between atoms: _537  and  _539
REMARK  220  A    between atoms: _539  and  _540
REMARK  221  A    between atoms: _539  and  _542
REMARK  222  A    between atoms: _542  and  _543
REMARK  223  A    between atoms: _546  and  _548
REMARK  224  A    between atoms: _548  and  _549
REMARK  225  A    between atoms: _551  and  _553
REMARK  226  A    between atoms: _553  and  _554
REMARK  227  A    between atoms: _553  and  _556
REMARK  228  A    between atoms: _556  and  _557
REMARK  229  A    between atoms: _557  and  _558
REMARK  230  A    between atoms: _558  and  _559
REMARK  231  A    between atoms: _568  and  _570
REMARK  232  A    between atoms: _570  and  _571
REMARK  233  A    between atoms: _570  and  _573
REMARK  234  A    between atoms: _573  and  _574
REMARK                            x       y       z     vdW  Elec       q    Type
REMARK                         _______ _______ _______ _____ _____    ______ ____
ROOT
ATOM      1  O   HOH     1       9.385 -14.517 -21.109  0.00  0.00    +0.000 OA
ENDROOT
TORSDOF 0
REMARK  Name = ../refined-set-2016/2o4s/2o4s_pocket.pdb
REMARK  234 active torsions:
REMARK  status: ('A' for Active; 'I' for Inactive)
REMARK    1  A    between atoms: _1  and  _3
REMARK    2  A    between atoms: _3  and  _4
REMARK    3  A    between atoms: _3  and  _6
REMARK    4  A    between atoms: _6  and  _7
REMARK    5  A    between atoms: _7  and  _8
REMARK    6  A    between atoms: _8  and  _9
REMARK    7  A    between atoms: _18  and  _20
REMARK    8  A    between atoms: _20  and  _21
REMARK    9  A    between atoms: _20  and  _23
REMARK   10  A    between atoms: _23  and  _24
REMARK   11  A    between atoms: _27  and  _29
REMARK   12  A    between atoms: _29  and  _30
REMARK   13  A    between atoms: _29  and  _32
REMARK   14  A    between atoms: _32  and  _33
REMARK   15  A    between atoms: _36  and  _38
REMARK   16  A    between atoms: _38  and  _39
REMARK   17  A    between atoms: _38  and  _41
REMARK   18  A    between atoms: _41  and  _42
REMARK   19  A    between atoms: _45  and  _47
REMARK   20  A    between atoms: _47  and  _48
REMARK   21  A    between atoms: _47  and  _50
REMARK   22  A    between atoms: _50  and  _51
REMARK   23  A    between atoms: _54  and  _56
REMARK   24  A    between atoms: _56  and  _57
REMARK   25  A    between atoms: _59  and  _61
REMARK   26  A    between atoms: _61  and  _62
REMARK   27  A    between atoms: _65  and  _67
REMARK   28  A    between atoms: _67  and  _68
REMARK   29  A    between atoms: _67  and  _70
REMARK   30  A    between atoms: _70  and  _71
REMARK   31  A    between atoms: _74  and  _76
REMARK   32  A    between atoms: _76  and  _77
REMARK   33  A    between atoms: _76  and  _79
REMARK   34  A    between atoms: _79  and  _80
REMARK   35  A    between atoms: _83  and  _85
REMARK   36  A    between atoms: _85  and  _86
REMARK   37  A    between atoms: _85  and  _88
REMARK   38  A    between atoms: _88  and  _89
REMARK   39  A    between atoms: _92  and  _94
REMARK   40  A    between atoms: _94  and  _95
REMARK   41  A    between atoms: _94  and  _97
REMARK   42  A    between atoms: _100  and  _102
REMARK   43  A    between atoms: _102  and  _103
REMARK   44  A    between atoms: _102  and  _105
REMARK   45  A    between atoms: _105  and  _106
REMARK   46  A    between atoms: _106  and  _107
REMARK   47  A    between atoms: _107  and  _108
REMARK   48  A    between atoms: _108  and  _109
REMARK   49  A    between atoms: _113  and  _115
REMARK   50  A    between atoms: _115  and  _116
REMARK   51  A    between atoms: _115  and  _118
REMARK   52  A    between atoms: _118  and  _119
REMARK   53  A    between atoms: _119  and  _120
REMARK   54  A    between atoms: _122  and  _124
REMARK   55  A    between atoms: _124  and  _125
REMARK   56  A    between atoms: _124  and  _127
REMARK   57  A    between atoms: _127  and  _128
REMARK   58  A    between atoms: _131  and  _133
REMARK   59  A    between atoms: _133  and  _134
REMARK   60  A    between atoms: _136  and  _138
REMARK   61  A    between atoms: _138  and  _139
REMARK   62  A    between atoms: _141  and  _143
REMARK   63  A    between atoms: _143  and  _144
REMARK   64  A    between atoms: _143  and  _146
REMARK   65  A    between atoms: _146  and  _147
REMARK   66  A    between atoms: _150  and  _152
REMARK   67  A    between atoms: _152  and  _153
REMARK   68  A    between atoms: _155  and  _157
REMARK   69  A    between atoms: _157  and  _158
REMARK   70  A    between atoms: _160  and  _162
REMARK   71  A    between atoms: _162  and  _163
REMARK   72  A    between atoms: _162  and  _165
REMARK   73  A    between atoms: _165  and  _166
REMARK   74  A    between atoms: _172  and  _174
REMARK   75  A    between atoms: _174  and  _175
REMARK   76  A    between atoms: _174  and  _177
REMARK   77  A    between atoms: _177  and  _178
REMARK   78  A    between atoms: _181  and  _183
REMARK   79  A    between atoms: _183  and  _184
REMARK   80  A    between atoms: _183  and  _186
REMARK   81  A    between atoms: _189  and  _191
REMARK   82  A    between atoms: _191  and  _192
REMARK   83  A    between atoms: _191  and  _194
REMARK   84  A    between atoms: _194  and  _195
REMARK   85  A    between atoms: _199  and  _200
REMARK   86  A    between atoms: _205  and  _207
REMARK   87  A    between atoms: _207  and  _208
REMARK   88  A    between atoms: _207  and  _210
REMARK   89  A    between atoms: _210  and  _211
REMARK   90  A    between atoms: _215  and  _216
REMARK   91  A    between atoms: _221  and  _223
REMARK   92  A    between atoms: _223  and  _224
REMARK   93  A    between atoms: _223  and  _226
REMARK   94  A    between atoms: _229  and  _231
REMARK   95  A    between atoms: _231  and  _232
REMARK   96  A    between atoms: _231  and  _234
REMARK   97  A    between atoms: _234  and  _235
REMARK   98  A    between atoms: _240  and  _242
REMARK   99  A    between atoms: _242  and  _243
REMARK  100  A    between atoms: _242  and  _245
REMARK  101  A    between atoms: _245  and  _246
REMARK  102  A    between atoms: _249  and  _251
REMARK  103  A    between atoms: _251  and  _252
REMARK  104  A    between atoms: _251  and  _254
REMARK  105  A    between atoms: _254  and  _255
REMARK  106  A    between atoms: _258  and  _260
REMARK  107  A    between atoms: _260  and  _261
REMARK  108  A    between atoms: _263  and  _265
REMARK  109  A    between atoms: _265  and  _266
REMARK  110  A    between atoms: _265  and  _268
REMARK  111  A    between atoms: _268  and  _269
REMARK  112  A    between atoms: _269  and  _270
REMARK  113  A    between atoms: _270  and  _271
REMARK  114  A    between atoms: _280  and  _282
REMARK  115  A    between atoms: _282  and  _283
REMARK  116  A    between atoms: _282  and  _285
REMARK  117  A    between atoms: _285  and  _286
REMARK  118  A    between atoms: _286  and  _287
REMARK  119  A    between atoms: _287  and  _288
REMARK  120  A    between atoms: _297  and  _299
REMARK  121  A    between atoms: _299  and  _300
REMARK  122  A    between atoms: _299  and  _302
REMARK  123  A    between atoms: _302  and  _303
REMARK  124  A    between atoms: _306  and  _308
REMARK  125  A    between atoms: _308  and  _309
REMARK  126  A    between atoms: _308  and  _311
REMARK  127  A    between atoms: _311  and  _312
REMARK  128  A    between atoms: _315  and  _317
REMARK  129  A    between atoms: _317  and  _318
REMARK  130  A    between atoms: _317  and  _320
REMARK  131  A    between atoms: _320  and  _321
REMARK  132  A    between atoms: _324  and  _326
REMARK  133  A    between atoms: _326  and  _327
REMARK  134  A    between atoms: _326  and  _329
REMARK  135  A    between atoms: _329  and  _330
REMARK  136  A    between atoms: _333  and  _335
REMARK  137  A    between atoms: _335  and  _336
REMARK  138  A    between atoms: _338  and  _340
REMARK  139  A    between atoms: _340  and  _341
REMARK  140  A    between atoms: _344  and  _346
REMARK  141  A    between atoms: _346  and  _347
REMARK  142  A    between atoms: _346  and  _349
REMARK  143  A    between atoms: _349  and  _350
REMARK  144  A    between atoms: _353  and  _355
REMARK  145  A    between atoms: _355  and  _356
REMARK  146  A    between atoms: _355  and  _358
REMARK  147  A    between atoms: _358  and  _359
REMARK  148  A    between atoms: _362  and  _364
REMARK  149  A    between atoms: _364  and  _365
REMARK  150  A    between atoms: _364  and  _367
REMARK  151  A    between atoms: _367  and  _368
REMARK  152  A    between atoms: _371  and  _373
REMARK  153  A    between atoms: _373  and  _374
REMARK  154  A    between atoms: _373  and  _376
REMARK  155  A    between atoms: _379  and  _381
REMARK  156  A    between atoms: _381  and  _382
REMARK  157  A    between atoms: _381  and  _384
REMARK  158  A    between atoms: _384  and  _385
REMARK  159  A    between atoms: _388  and  _390
REMARK  160  A    between atoms: _390  and  _391
REMARK  161  A    between atoms: _390  and  _393
REMARK  162  A    between atoms: _393  and  _394
REMARK  163  A    between atoms: _394  and  _395
REMARK  164  A    between atoms: _395  and  _396
REMARK  165  A    between atoms: _396  and  _397
REMARK  166  A    between atoms: _401  and  _403
REMARK  167  A    between atoms: _403  and  _404
REMARK  168  A    between atoms: _403  and  _406
REMARK  169  A    between atoms: _406  and  _407
REMARK  170  A    between atoms: _407  and  _408
REMARK  171  A    between atoms: _410  and  _412
REMARK  172  A    between atoms: _412  and  _413
REMARK  173  A    between atoms: _412  and  _415
REMARK  174  A    between atoms: _415  and  _416
REMARK  175  A    between atoms: _419  and  _421
REMARK  176  A    between atoms: _421  and  _422
REMARK  177  A    between atoms: _424  and  _426
REMARK  178  A    between atoms: _426  and  _427
REMARK  179  A    between atoms: _429  and  _431
REMARK  180  A    between atoms: _431  and  _432
REMARK  181  A    between atoms: _431  and  _434
REMARK  182  A    between atoms: _434  and  _435
REMARK  183  A    between atoms: _438  and  _440
REMARK  184  A    between atoms: _440  and  _441
REMARK  185  A    between atoms: _443  and  _445
REMARK  186  A    between atoms: _445  and  _446
REMARK  187  A    between atoms: _448  and  _450
REMARK  188  A    between atoms: _450  and  _451
REMARK  189  A    between atoms: _450  and  _453
REMARK  190  A    between atoms: _453  and  _454
REMARK  191  A    between atoms: _460  and  _462
REMARK  192  A    between atoms: _462  and  _463
REMARK  193  A    between atoms: _462  and  _465
REMARK  194  A    between atoms: _465  and  _466
REMARK  195  A    between atoms: _469  and  _471
REMARK  196  A    between atoms: _471  and  _472
REMARK  197  A    between atoms: _471  and  _474
REMARK  198  A    between atoms: _477  and  _479
REMARK  199  A    between atoms: _479  and  _480
REMARK  200  A    between atoms: _479  and  _482
REMARK  201  A    between atoms: _482  and  _483
REMARK  202  A    between atoms: _487  and  _488
REMARK  203  A    between atoms: _493  and  _495
REMARK  204  A    between atoms: _495  and  _496
REMARK  205  A    between atoms: _495  and  _498
REMARK  206  A    between atoms: _498  and  _499
REMARK  207  A    between atoms: _503  and  _504
REMARK  208  A    between atoms: _509  and  _511
REMARK  209  A    between atoms: _511  and  _512
REMARK  210  A    between atoms: _511  and  _514
REMARK  211  A    between atoms: _517  and  _519
REMARK  212  A    between atoms: _519  and  _520
REMARK  213  A    between atoms: _519  and  _522
REMARK  214  A    between atoms: _522  and  _523
REMARK  215  A    between atoms: _528  and  _530
REMARK  216  A    between atoms: _530  and  _531
REMARK  217  A    between atoms: _530  and  _533
REMARK  218  A    between atoms: _533  and  _534
REMARK  219  A    between atoms: _537  and  _539
REMARK  220  A    between atoms: _539  and  _540
REMARK  221  A    between atoms: _539  and  _542
REMARK  222  A    between atoms: _542  and  _543
REMARK  223  A    between atoms: _546  and  _548
REMARK  224  A    between atoms: _548  and  _549
REMARK  225  A    between atoms: _551  and  _553
REMARK  226  A    between atoms: _553  and  _554
REMARK  227  A    between atoms: _553  and  _556
REMARK  228  A    between atoms: _556  and  _557
REMARK  229  A    between atoms: _557  and  _558
REMARK  230  A    between atoms: _558  and  _559
REMARK  231  A    between atoms: _568  and  _570
REMARK  232  A    between atoms: _570  and  _571
REMARK  233  A    between atoms: _570  and  _573
REMARK  234  A    between atoms: _573  and  _574
REMARK                            x       y       z     vdW  Elec       q    Type
REMARK                         _______ _______ _______ _____ _____    ______ ____
ROOT
ATOM      1  O   HOH     1      10.328 -22.096 -17.067  0.00  0.00    +0.000 OA
ENDROOT
TORSDOF 0
REMARK  Name = ../refined-set-2016/2o4s/2o4s_pocket.pdb
REMARK  234 active torsions:
REMARK  status: ('A' for Active; 'I' for Inactive)
REMARK    1  A    between atoms: _1  and  _3
REMARK    2  A    between atoms: _3  and  _4
REMARK    3  A    between atoms: _3  and  _6
REMARK    4  A    between atoms: _6  and  _7
REMARK    5  A    between atoms: _7  and  _8
REMARK    6  A    between atoms: _8  and  _9
REMARK    7  A    between atoms: _18  and  _20
REMARK    8  A    between atoms: _20  and  _21
REMARK    9  A    between atoms: _20  and  _23
REMARK   10  A    between atoms: _23  and  _24
REMARK   11  A    between atoms: _27  and  _29
REMARK   12  A    between atoms: _29  and  _30
REMARK   13  A    between atoms: _29  and  _32
REMARK   14  A    between atoms: _32  and  _33
REMARK   15  A    between atoms: _36  and  _38
REMARK   16  A    between atoms: _38  and  _39
REMARK   17  A    between atoms: _38  and  _41
REMARK   18  A    between atoms: _41  and  _42
REMARK   19  A    between atoms: _45  and  _47
REMARK   20  A    between atoms: _47  and  _48
REMARK   21  A    between atoms: _47  and  _50
REMARK   22  A    between atoms: _50  and  _51
REMARK   23  A    between atoms: _54  and  _56
REMARK   24  A    between atoms: _56  and  _57
REMARK   25  A    between atoms: _59  and  _61
REMARK   26  A    between atoms: _61  and  _62
REMARK   27  A    between atoms: _65  and  _67
REMARK   28  A    between atoms: _67  and  _68
REMARK   29  A    between atoms: _67  and  _70
REMARK   30  A    between atoms: _70  and  _71
REMARK   31  A    between atoms: _74  and  _76
REMARK   32  A    between atoms: _76  and  _77
REMARK   33  A    between atoms: _76  and  _79
REMARK   34  A    between atoms: _79  and  _80
REMARK   35  A    between atoms: _83  and  _85
REMARK   36  A    between atoms: _85  and  _86
REMARK   37  A    between atoms: _85  and  _88
REMARK   38  A    between atoms: _88  and  _89
REMARK   39  A    between atoms: _92  and  _94
REMARK   40  A    between atoms: _94  and  _95
REMARK   41  A    between atoms: _94  and  _97
REMARK   42  A    between atoms: _100  and  _102
REMARK   43  A    between atoms: _102  and  _103
REMARK   44  A    between atoms: _102  and  _105
REMARK   45  A    between atoms: _105  and  _106
REMARK   46  A    between atoms: _106  and  _107
REMARK   47  A    between atoms: _107  and  _108
REMARK   48  A    between atoms: _108  and  _109
REMARK   49  A    between atoms: _113  and  _115
REMARK   50  A    between atoms: _115  and  _116
REMARK   51  A    between atoms: _115  and  _118
REMARK   52  A    between atoms: _118  and  _119
REMARK   53  A    between atoms: _119  and  _120
REMARK   54  A    between atoms: _122  and  _124
REMARK   55  A    between atoms: _124  and  _125
REMARK   56  A    between atoms: _124  and  _127
REMARK   57  A    between atoms: _127  and  _128
REMARK   58  A    between atoms: _131  and  _133
REMARK   59  A    between atoms: _133  and  _134
REMARK   60  A    between atoms: _136  and  _138
REMARK   61  A    between atoms: _138  and  _139
REMARK   62  A    between atoms: _141  and  _143
REMARK   63  A    between atoms: _143  and  _144
REMARK   64  A    between atoms: _143  and  _146
REMARK   65  A    between atoms: _146  and  _147
REMARK   66  A    between atoms: _150  and  _152
REMARK   67  A    between atoms: _152  and  _153
REMARK   68  A    between atoms: _155  and  _157
REMARK   69  A    between atoms: _157  and  _158
REMARK   70  A    between atoms: _160  and  _162
REMARK   71  A    between atoms: _162  and  _163
REMARK   72  A    between atoms: _162  and  _165
REMARK   73  A    between atoms: _165  and  _166
REMARK   74  A    between atoms: _172  and  _174
REMARK   75  A    between atoms: _174  and  _175
REMARK   76  A    between atoms: _174  and  _177
REMARK   77  A    between atoms: _177  and  _178
REMARK   78  A    between atoms: _181  and  _183
REMARK   79  A    between atoms: _183  and  _184
REMARK   80  A    between atoms: _183  and  _186
REMARK   81  A    between atoms: _189  and  _191
REMARK   82  A    between atoms: _191  and  _192
REMARK   83  A    between atoms: _191  and  _194
REMARK   84  A    between atoms: _194  and  _195
REMARK   85  A    between atoms: _199  and  _200
REMARK   86  A    between atoms: _205  and  _207
REMARK   87  A    between atoms: _207  and  _208
REMARK   88  A    between atoms: _207  and  _210
REMARK   89  A    between atoms: _210  and  _211
REMARK   90  A    between atoms: _215  and  _216
REMARK   91  A    between atoms: _221  and  _223
REMARK   92  A    between atoms: _223  and  _224
REMARK   93  A    between atoms: _223  and  _226
REMARK   94  A    between atoms: _229  and  _231
REMARK   95  A    between atoms: _231  and  _232
REMARK   96  A    between atoms: _231  and  _234
REMARK   97  A    between atoms: _234  and  _235
REMARK   98  A    between atoms: _240  and  _242
REMARK   99  A    between atoms: _242  and  _243
REMARK  100  A    between atoms: _242  and  _245
REMARK  101  A    between atoms: _245  and  _246
REMARK  102  A    between atoms: _249  and  _251
REMARK  103  A    between atoms: _251  and  _252
REMARK  104  A    between atoms: _251  and  _254
REMARK  105  A    between atoms: _254  and  _255
REMARK  106  A    between atoms: _258  and  _260
REMARK  107  A    between atoms: _260  and  _261
REMARK  108  A    between atoms: _263  and  _265
REMARK  109  A    between atoms: _265  and  _266
REMARK  110  A    between atoms: _265  and  _268
REMARK  111  A    between atoms: _268  and  _269
REMARK  112  A    between atoms: _269  and  _270
REMARK  113  A    between atoms: _270  and  _271
REMARK  114  A    between atoms: _280  and  _282
REMARK  115  A    between atoms: _282  and  _283
REMARK  116  A    between atoms: _282  and  _285
REMARK  117  A    between atoms: _285  and  _286
REMARK  118  A    between atoms: _286  and  _287
REMARK  119  A    between atoms: _287  and  _288
REMARK  120  A    between atoms: _297  and  _299
REMARK  121  A    between atoms: _299  and  _300
REMARK  122  A    between atoms: _299  and  _302
REMARK  123  A    between atoms: _302  and  _303
REMARK  124  A    between atoms: _306  and  _308
REMARK  125  A    between atoms: _308  and  _309
REMARK  126  A    between atoms: _308  and  _311
REMARK  127  A    between atoms: _311  and  _312
REMARK  128  A    between atoms: _315  and  _317
REMARK  129  A    between atoms: _317  and  _318
REMARK  130  A    between atoms: _317  and  _320
REMARK  131  A    between atoms: _320  and  _321
REMARK  132  A    between atoms: _324  and  _326
REMARK  133  A    between atoms: _326  and  _327
REMARK  134  A    between atoms: _326  and  _329
REMARK  135  A    between atoms: _329  and  _330
REMARK  136  A    between atoms: _333  and  _335
REMARK  137  A    between atoms: _335  and  _336
REMARK  138  A    between atoms: _338  and  _340
REMARK  139  A    between atoms: _340  and  _341
REMARK  140  A    between atoms: _344  and  _346
REMARK  141  A    between atoms: _346  and  _347
REMARK  142  A    between atoms: _346  and  _349
REMARK  143  A    between atoms: _349  and  _350
REMARK  144  A    between atoms: _353  and  _355
REMARK  145  A    between atoms: _355  and  _356
REMARK  146  A    between atoms: _355  and  _358
REMARK  147  A    between atoms: _358  and  _359
REMARK  148  A    between atoms: _362  and  _364
REMARK  149  A    between atoms: _364  and  _365
REMARK  150  A    between atoms: _364  and  _367
REMARK  151  A    between atoms: _367  and  _368
REMARK  152  A    between atoms: _371  and  _373
REMARK  153  A    between atoms: _373  and  _374
REMARK  154  A    between atoms: _373  and  _376
REMARK  155  A    between atoms: _379  and  _381
REMARK  156  A    between atoms: _381  and  _382
REMARK  157  A    between atoms: _381  and  _384
REMARK  158  A    between atoms: _384  and  _385
REMARK  159  A    between atoms: _388  and  _390
REMARK  160  A    between atoms: _390  and  _391
REMARK  161  A    between atoms: _390  and  _393
REMARK  162  A    between atoms: _393  and  _394
REMARK  163  A    between atoms: _394  and  _395
REMARK  164  A    between atoms: _395  and  _396
REMARK  165  A    between atoms: _396  and  _397
REMARK  166  A    between atoms: _401  and  _403
REMARK  167  A    between atoms: _403  and  _404
REMARK  168  A    between atoms: _403  and  _406
REMARK  169  A    between atoms: _406  and  _407
REMARK  170  A    between atoms: _407  and  _408
REMARK  171  A    between atoms: _410  and  _412
REMARK  172  A    between atoms: _412  and  _413
REMARK  173  A    between atoms: _412  and  _415
REMARK  174  A    between atoms: _415  and  _416
REMARK  175  A    between atoms: _419  and  _421
REMARK  176  A    between atoms: _421  and  _422
REMARK  177  A    between atoms: _424  and  _426
REMARK  178  A    between atoms: _426  and  _427
REMARK  179  A    between atoms: _429  and  _431
REMARK  180  A    between atoms: _431  and  _432
REMARK  181  A    between atoms: _431  and  _434
REMARK  182  A    between atoms: _434  and  _435
REMARK  183  A    between atoms: _438  and  _440
REMARK  184  A    between atoms: _440  and  _441
REMARK  185  A    between atoms: _443  and  _445
REMARK  186  A    between atoms: _445  and  _446
REMARK  187  A    between atoms: _448  and  _450
REMARK  188  A    between atoms: _450  and  _451
REMARK  189  A    between atoms: _450  and  _453
REMARK  190  A    between atoms: _453  and  _454
REMARK  191  A    between atoms: _460  and  _462
REMARK  192  A    between atoms: _462  and  _463
REMARK  193  A    between atoms: _462  and  _465
REMARK  194  A    between atoms: _465  and  _466
REMARK  195  A    between atoms: _469  and  _471
REMARK  196  A    between atoms: _471  and  _472
REMARK  197  A    between atoms: _471  and  _474
REMARK  198  A    between atoms: _477  and  _479
REMARK  199  A    between atoms: _479  and  _480
REMARK  200  A    between atoms: _479  and  _482
REMARK  201  A    between atoms: _482  and  _483
REMARK  202  A    between atoms: _487  and  _488
REMARK  203  A    between atoms: _493  and  _495
REMARK  204  A    between atoms: _495  and  _496
REMARK  205  A    between atoms: _495  and  _498
REMARK  206  A    between atoms: _498  and  _499
REMARK  207  A    between atoms: _503  and  _504
REMARK  208  A    between atoms: _509  and  _511
REMARK  209  A    between atoms: _511  and  _512
REMARK  210  A    between atoms: _511  and  _514
REMARK  211  A    between atoms: _517  and  _519
REMARK  212  A    between atoms: _519  and  _520
REMARK  213  A    between atoms: _519  and  _522
REMARK  214  A    between atoms: _522  and  _523
REMARK  215  A    between atoms: _528  and  _530
REMARK  216  A    between atoms: _530  and  _531
REMARK  217  A    between atoms: _530  and  _533
REMARK  218  A    between atoms: _533  and  _534
REMARK  219  A    between atoms: _537  and  _539
REMARK  220  A    between atoms: _539  and  _540
REMARK  221  A    between atoms: _539  and  _542
REMARK  222  A    between atoms: _542  and  _543
REMARK  223  A    between atoms: _546  and  _548
REMARK  224  A    between atoms: _548  and  _549
REMARK  225  A    between atoms: _551  and  _553
REMARK  226  A    between atoms: _553  and  _554
REMARK  227  A    between atoms: _553  and  _556
REMARK  228  A    between atoms: _556  and  _557
REMARK  229  A    between atoms: _557  and  _558
REMARK  230  A    between atoms: _558  and  _559
REMARK  231  A    between atoms: _568  and  _570
REMARK  232  A    between atoms: _570  and  _571
REMARK  233  A    between atoms: _570  and  _573
REMARK  234  A    between atoms: _573  and  _574
REMARK                            x       y       z     vdW  Elec       q    Type
REMARK                         _______ _______ _______ _____ _____    ______ ____
ROOT
ATOM      1  O   HOH     1      18.900 -27.994 -16.518  0.00  0.00    +0.000 OA
ENDROOT
TORSDOF 0
REMARK  Name = ../refined-set-2016/2o4s/2o4s_pocket.pdb
REMARK  234 active torsions:
REMARK  status: ('A' for Active; 'I' for Inactive)
REMARK    1  A    between atoms: _1  and  _3
REMARK    2  A    between atoms: _3  and  _4
REMARK    3  A    between atoms: _3  and  _6
REMARK    4  A    between atoms: _6  and  _7
REMARK    5  A    between atoms: _7  and  _8
REMARK    6  A    between atoms: _8  and  _9
REMARK    7  A    between atoms: _18  and  _20
REMARK    8  A    between atoms: _20  and  _21
REMARK    9  A    between atoms: _20  and  _23
REMARK   10  A    between atoms: _23  and  _24
REMARK   11  A    between atoms: _27  and  _29
REMARK   12  A    between atoms: _29  and  _30
REMARK   13  A    between atoms: _29  and  _32
REMARK   14  A    between atoms: _32  and  _33
REMARK   15  A    between atoms: _36  and  _38
REMARK   16  A    between atoms: _38  and  _39
REMARK   17  A    between atoms: _38  and  _41
REMARK   18  A    between atoms: _41  and  _42
REMARK   19  A    between atoms: _45  and  _47
REMARK   20  A    between atoms: _47  and  _48
REMARK   21  A    between atoms: _47  and  _50
REMARK   22  A    between atoms: _50  and  _51
REMARK   23  A    between atoms: _54  and  _56
REMARK   24  A    between atoms: _56  and  _57
REMARK   25  A    between atoms: _59  and  _61
REMARK   26  A    between atoms: _61  and  _62
REMARK   27  A    between atoms: _65  and  _67
REMARK   28  A    between atoms: _67  and  _68
REMARK   29  A    between atoms: _67  and  _70
REMARK   30  A    between atoms: _70  and  _71
REMARK   31  A    between atoms: _74  and  _76
REMARK   32  A    between atoms: _76  and  _77
REMARK   33  A    between atoms: _76  and  _79
REMARK   34  A    between atoms: _79  and  _80
REMARK   35  A    between atoms: _83  and  _85
REMARK   36  A    between atoms: _85  and  _86
REMARK   37  A    between atoms: _85  and  _88
REMARK   38  A    between atoms: _88  and  _89
REMARK   39  A    between atoms: _92  and  _94
REMARK   40  A    between atoms: _94  and  _95
REMARK   41  A    between atoms: _94  and  _97
REMARK   42  A    between atoms: _100  and  _102
REMARK   43  A    between atoms: _102  and  _103
REMARK   44  A    between atoms: _102  and  _105
REMARK   45  A    between atoms: _105  and  _106
REMARK   46  A    between atoms: _106  and  _107
REMARK   47  A    between atoms: _107  and  _108
REMARK   48  A    between atoms: _108  and  _109
REMARK   49  A    between atoms: _113  and  _115
REMARK   50  A    between atoms: _115  and  _116
REMARK   51  A    between atoms: _115  and  _118
REMARK   52  A    between atoms: _118  and  _119
REMARK   53  A    between atoms: _119  and  _120
REMARK   54  A    between atoms: _122  and  _124
REMARK   55  A    between atoms: _124  and  _125
REMARK   56  A    between atoms: _124  and  _127
REMARK   57  A    between atoms: _127  and  _128
REMARK   58  A    between atoms: _131  and  _133
REMARK   59  A    between atoms: _133  and  _134
REMARK   60  A    between atoms: _136  and  _138
REMARK   61  A    between atoms: _138  and  _139
REMARK   62  A    between atoms: _141  and  _143
REMARK   63  A    between atoms: _143  and  _144
REMARK   64  A    between atoms: _143  and  _146
REMARK   65  A    between atoms: _146  and  _147
REMARK   66  A    between atoms: _150  and  _152
REMARK   67  A    between atoms: _152  and  _153
REMARK   68  A    between atoms: _155  and  _157
REMARK   69  A    between atoms: _157  and  _158
REMARK   70  A    between atoms: _160  and  _162
REMARK   71  A    between atoms: _162  and  _163
REMARK   72  A    between atoms: _162  and  _165
REMARK   73  A    between atoms: _165  and  _166
REMARK   74  A    between atoms: _172  and  _174
REMARK   75  A    between atoms: _174  and  _175
REMARK   76  A    between atoms: _174  and  _177
REMARK   77  A    between atoms: _177  and  _178
REMARK   78  A    between atoms: _181  and  _183
REMARK   79  A    between atoms: _183  and  _184
REMARK   80  A    between atoms: _183  and  _186
REMARK   81  A    between atoms: _189  and  _191
REMARK   82  A    between atoms: _191  and  _192
REMARK   83  A    between atoms: _191  and  _194
REMARK   84  A    between atoms: _194  and  _195
REMARK   85  A    between atoms: _199  and  _200
REMARK   86  A    between atoms: _205  and  _207
REMARK   87  A    between atoms: _207  and  _208
REMARK   88  A    between atoms: _207  and  _210
REMARK   89  A    between atoms: _210  and  _211
REMARK   90  A    between atoms: _215  and  _216
REMARK   91  A    between atoms: _221  and  _223
REMARK   92  A    between atoms: _223  and  _224
REMARK   93  A    between atoms: _223  and  _226
REMARK   94  A    between atoms: _229  and  _231
REMARK   95  A    between atoms: _231  and  _232
REMARK   96  A    between atoms: _231  and  _234
REMARK   97  A    between atoms: _234  and  _235
REMARK   98  A    between atoms: _240  and  _242
REMARK   99  A    between atoms: _242  and  _243
REMARK  100  A    between atoms: _242  and  _245
REMARK  101  A    between atoms: _245  and  _246
REMARK  102  A    between atoms: _249  and  _251
REMARK  103  A    between atoms: _251  and  _252
REMARK  104  A    between atoms: _251  and  _254
REMARK  105  A    between atoms: _254  and  _255
REMARK  106  A    between atoms: _258  and  _260
REMARK  107  A    between atoms: _260  and  _261
REMARK  108  A    between atoms: _263  and  _265
REMARK  109  A    between atoms: _265  and  _266
REMARK  110  A    between atoms: _265  and  _268
REMARK  111  A    between atoms: _268  and  _269
REMARK  112  A    between atoms: _269  and  _270
REMARK  113  A    between atoms: _270  and  _271
REMARK  114  A    between atoms: _280  and  _282
REMARK  115  A    between atoms: _282  and  _283
REMARK  116  A    between atoms: _282  and  _285
REMARK  117  A    between atoms: _285  and  _286
REMARK  118  A    between atoms: _286  and  _287
REMARK  119  A    between atoms: _287  and  _288
REMARK  120  A    between atoms: _297  and  _299
REMARK  121  A    between atoms: _299  and  _300
REMARK  122  A    between atoms: _299  and  _302
REMARK  123  A    between atoms: _302  and  _303
REMARK  124  A    between atoms: _306  and  _308
REMARK  125  A    between atoms: _308  and  _309
REMARK  126  A    between atoms: _308  and  _311
REMARK  127  A    between atoms: _311  and  _312
REMARK  128  A    between atoms: _315  and  _317
REMARK  129  A    between atoms: _317  and  _318
REMARK  130  A    between atoms: _317  and  _320
REMARK  131  A    between atoms: _320  and  _321
REMARK  132  A    between atoms: _324  and  _326
REMARK  133  A    between atoms: _326  and  _327
REMARK  134  A    between atoms: _326  and  _329
REMARK  135  A    between atoms: _329  and  _330
REMARK  136  A    between atoms: _333  and  _335
REMARK  137  A    between atoms: _335  and  _336
REMARK  138  A    between atoms: _338  and  _340
REMARK  139  A    between atoms: _340  and  _341
REMARK  140  A    between atoms: _344  and  _346
REMARK  141  A    between atoms: _346  and  _347
REMARK  142  A    between atoms: _346  and  _349
REMARK  143  A    between atoms: _349  and  _350
REMARK  144  A    between atoms: _353  and  _355
REMARK  145  A    between atoms: _355  and  _356
REMARK  146  A    between atoms: _355  and  _358
REMARK  147  A    between atoms: _358  and  _359
REMARK  148  A    between atoms: _362  and  _364
REMARK  149  A    between atoms: _364  and  _365
REMARK  150  A    between atoms: _364  and  _367
REMARK  151  A    between atoms: _367  and  _368
REMARK  152  A    between atoms: _371  and  _373
REMARK  153  A    between atoms: _373  and  _374
REMARK  154  A    between atoms: _373  and  _376
REMARK  155  A    between atoms: _379  and  _381
REMARK  156  A    between atoms: _381  and  _382
REMARK  157  A    between atoms: _381  and  _384
REMARK  158  A    between atoms: _384  and  _385
REMARK  159  A    between atoms: _388  and  _390
REMARK  160  A    between atoms: _390  and  _391
REMARK  161  A    between atoms: _390  and  _393
REMARK  162  A    between atoms: _393  and  _394
REMARK  163  A    between atoms: _394  and  _395
REMARK  164  A    between atoms: _395  and  _396
REMARK  165  A    between atoms: _396  and  _397
REMARK  166  A    between atoms: _401  and  _403
REMARK  167  A    between atoms: _403  and  _404
REMARK  168  A    between atoms: _403  and  _406
REMARK  169  A    between atoms: _406  and  _407
REMARK  170  A    between atoms: _407  and  _408
REMARK  171  A    between atoms: _410  and  _412
REMARK  172  A    between atoms: _412  and  _413
REMARK  173  A    between atoms: _412  and  _415
REMARK  174  A    between atoms: _415  and  _416
REMARK  175  A    between atoms: _419  and  _421
REMARK  176  A    between atoms: _421  and  _422
REMARK  177  A    between atoms: _424  and  _426
REMARK  178  A    between atoms: _426  and  _427
REMARK  179  A    between atoms: _429  and  _431
REMARK  180  A    between atoms: _431  and  _432
REMARK  181  A    between atoms: _431  and  _434
REMARK  182  A    between atoms: _434  and  _435
REMARK  183  A    between atoms: _438  and  _440
REMARK  184  A    between atoms: _440  and  _441
REMARK  185  A    between atoms: _443  and  _445
REMARK  186  A    between atoms: _445  and  _446
REMARK  187  A    between atoms: _448  and  _450
REMARK  188  A    between atoms: _450  and  _451
REMARK  189  A    between atoms: _450  and  _453
REMARK  190  A    between atoms: _453  and  _454
REMARK  191  A    between atoms: _460  and  _462
REMARK  192  A    between atoms: _462  and  _463
REMARK  193  A    between atoms: _462  and  _465
REMARK  194  A    between atoms: _465  and  _466
REMARK  195  A    between atoms: _469  and  _471
REMARK  196  A    between atoms: _471  and  _472
REMARK  197  A    between atoms: _471  and  _474
REMARK  198  A    between atoms: _477  and  _479
REMARK  199  A    between atoms: _479  and  _480
REMARK  200  A    between atoms: _479  and  _482
REMARK  201  A    between atoms: _482  and  _483
REMARK  202  A    between atoms: _487  and  _488
REMARK  203  A    between atoms: _493  and  _495
REMARK  204  A    between atoms: _495  and  _496
REMARK  205  A    between atoms: _495  and  _498
REMARK  206  A    between atoms: _498  and  _499
REMARK  207  A    between atoms: _503  and  _504
REMARK  208  A    between atoms: _509  and  _511
REMARK  209  A    between atoms: _511  and  _512
REMARK  210  A    between atoms: _511  and  _514
REMARK  211  A    between atoms: _517  and  _519
REMARK  212  A    between atoms: _519  and  _520
REMARK  213  A    between atoms: _519  and  _522
REMARK  214  A    between atoms: _522  and  _523
REMARK  215  A    between atoms: _528  and  _530
REMARK  216  A    between atoms: _530  and  _531
REMARK  217  A    between atoms: _530  and  _533
REMARK  218  A    between atoms: _533  and  _534
REMARK  219  A    between atoms: _537  and  _539
REMARK  220  A    between atoms: _539  and  _540
REMARK  221  A    between atoms: _539  and  _542
REMARK  222  A    between atoms: _542  and  _543
REMARK  223  A    between atoms: _546  and  _548
REMARK  224  A    between atoms: _548  and  _549
REMARK  225  A    between atoms: _551  and  _553
REMARK  226  A    between atoms: _553  and  _554
REMARK  227  A    between atoms: _553  and  _556
REMARK  228  A    between atoms: _556  and  _557
REMARK  229  A    between atoms: _557  and  _558
REMARK  230  A    between atoms: _558  and  _559
REMARK  231  A    between atoms: _568  and  _570
REMARK  232  A    between atoms: _570  and  _571
REMARK  233  A    between atoms: _570  and  _573
REMARK  234  A    between atoms: _573  and  _574
REMARK                            x       y       z     vdW  Elec       q    Type
REMARK                         _______ _______ _______ _____ _____    ______ ____
ROOT
ATOM      1  O   HOH     1       2.322 -17.889 -15.732  0.00  0.00    +0.000 OA
ENDROOT
TORSDOF 0
REMARK  Name = ../refined-set-2016/2o4s/2o4s_pocket.pdb
REMARK  234 active torsions:
REMARK  status: ('A' for Active; 'I' for Inactive)
REMARK    1  A    between atoms: _1  and  _3
REMARK    2  A    between atoms: _3  and  _4
REMARK    3  A    between atoms: _3  and  _6
REMARK    4  A    between atoms: _6  and  _7
REMARK    5  A    between atoms: _7  and  _8
REMARK    6  A    between atoms: _8  and  _9
REMARK    7  A    between atoms: _18  and  _20
REMARK    8  A    between atoms: _20  and  _21
REMARK    9  A    between atoms: _20  and  _23
REMARK   10  A    between atoms: _23  and  _24
REMARK   11  A    between atoms: _27  and  _29
REMARK   12  A    between atoms: _29  and  _30
REMARK   13  A    between atoms: _29  and  _32
REMARK   14  A    between atoms: _32  and  _33
REMARK   15  A    between atoms: _36  and  _38
REMARK   16  A    between atoms: _38  and  _39
REMARK   17  A    between atoms: _38  and  _41
REMARK   18  A    between atoms: _41  and  _42
REMARK   19  A    between atoms: _45  and  _47
REMARK   20  A    between atoms: _47  and  _48
REMARK   21  A    between atoms: _47  and  _50
REMARK   22  A    between atoms: _50  and  _51
REMARK   23  A    between atoms: _54  and  _56
REMARK   24  A    between atoms: _56  and  _57
REMARK   25  A    between atoms: _59  and  _61
REMARK   26  A    between atoms: _61  and  _62
REMARK   27  A    between atoms: _65  and  _67
REMARK   28  A    between atoms: _67  and  _68
REMARK   29  A    between atoms: _67  and  _70
REMARK   30  A    between atoms: _70  and  _71
REMARK   31  A    between atoms: _74  and  _76
REMARK   32  A    between atoms: _76  and  _77
REMARK   33  A    between atoms: _76  and  _79
REMARK   34  A    between atoms: _79  and  _80
REMARK   35  A    between atoms: _83  and  _85
REMARK   36  A    between atoms: _85  and  _86
REMARK   37  A    between atoms: _85  and  _88
REMARK   38  A    between atoms: _88  and  _89
REMARK   39  A    between atoms: _92  and  _94
REMARK   40  A    between atoms: _94  and  _95
REMARK   41  A    between atoms: _94  and  _97
REMARK   42  A    between atoms: _100  and  _102
REMARK   43  A    between atoms: _102  and  _103
REMARK   44  A    between atoms: _102  and  _105
REMARK   45  A    between atoms: _105  and  _106
REMARK   46  A    between atoms: _106  and  _107
REMARK   47  A    between atoms: _107  and  _108
REMARK   48  A    between atoms: _108  and  _109
REMARK   49  A    between atoms: _113  and  _115
REMARK   50  A    between atoms: _115  and  _116
REMARK   51  A    between atoms: _115  and  _118
REMARK   52  A    between atoms: _118  and  _119
REMARK   53  A    between atoms: _119  and  _120
REMARK   54  A    between atoms: _122  and  _124
REMARK   55  A    between atoms: _124  and  _125
REMARK   56  A    between atoms: _124  and  _127
REMARK   57  A    between atoms: _127  and  _128
REMARK   58  A    between atoms: _131  and  _133
REMARK   59  A    between atoms: _133  and  _134
REMARK   60  A    between atoms: _136  and  _138
REMARK   61  A    between atoms: _138  and  _139
REMARK   62  A    between atoms: _141  and  _143
REMARK   63  A    between atoms: _143  and  _144
REMARK   64  A    between atoms: _143  and  _146
REMARK   65  A    between atoms: _146  and  _147
REMARK   66  A    between atoms: _150  and  _152
REMARK   67  A    between atoms: _152  and  _153
REMARK   68  A    between atoms: _155  and  _157
REMARK   69  A    between atoms: _157  and  _158
REMARK   70  A    between atoms: _160  and  _162
REMARK   71  A    between atoms: _162  and  _163
REMARK   72  A    between atoms: _162  and  _165
REMARK   73  A    between atoms: _165  and  _166
REMARK   74  A    between atoms: _172  and  _174
REMARK   75  A    between atoms: _174  and  _175
REMARK   76  A    between atoms: _174  and  _177
REMARK   77  A    between atoms: _177  and  _178
REMARK   78  A    between atoms: _181  and  _183
REMARK   79  A    between atoms: _183  and  _184
REMARK   80  A    between atoms: _183  and  _186
REMARK   81  A    between atoms: _189  and  _191
REMARK   82  A    between atoms: _191  and  _192
REMARK   83  A    between atoms: _191  and  _194
REMARK   84  A    between atoms: _194  and  _195
REMARK   85  A    between atoms: _199  and  _200
REMARK   86  A    between atoms: _205  and  _207
REMARK   87  A    between atoms: _207  and  _208
REMARK   88  A    between atoms: _207  and  _210
REMARK   89  A    between atoms: _210  and  _211
REMARK   90  A    between atoms: _215  and  _216
REMARK   91  A    between atoms: _221  and  _223
REMARK   92  A    between atoms: _223  and  _224
REMARK   93  A    between atoms: _223  and  _226
REMARK   94  A    between atoms: _229  and  _231
REMARK   95  A    between atoms: _231  and  _232
REMARK   96  A    between atoms: _231  and  _234
REMARK   97  A    between atoms: _234  and  _235
REMARK   98  A    between atoms: _240  and  _242
REMARK   99  A    between atoms: _242  and  _243
REMARK  100  A    between atoms: _242  and  _245
REMARK  101  A    between atoms: _245  and  _246
REMARK  102  A    between atoms: _249  and  _251
REMARK  103  A    between atoms: _251  and  _252
REMARK  104  A    between atoms: _251  and  _254
REMARK  105  A    between atoms: _254  and  _255
REMARK  106  A    between atoms: _258  and  _260
REMARK  107  A    between atoms: _260  and  _261
REMARK  108  A    between atoms: _263  and  _265
REMARK  109  A    between atoms: _265  and  _266
REMARK  110  A    between atoms: _265  and  _268
REMARK  111  A    between atoms: _268  and  _269
REMARK  112  A    between atoms: _269  and  _270
REMARK  113  A    between atoms: _270  and  _271
REMARK  114  A    between atoms: _280  and  _282
REMARK  115  A    between atoms: _282  and  _283
REMARK  116  A    between atoms: _282  and  _285
REMARK  117  A    between atoms: _285  and  _286
REMARK  118  A    between atoms: _286  and  _287
REMARK  119  A    between atoms: _287  and  _288
REMARK  120  A    between atoms: _297  and  _299
REMARK  121  A    between atoms: _299  and  _300
REMARK  122  A    between atoms: _299  and  _302
REMARK  123  A    between atoms: _302  and  _303
REMARK  124  A    between atoms: _306  and  _308
REMARK  125  A    between atoms: _308  and  _309
REMARK  126  A    between atoms: _308  and  _311
REMARK  127  A    between atoms: _311  and  _312
REMARK  128  A    between atoms: _315  and  _317
REMARK  129  A    between atoms: _317  and  _318
REMARK  130  A    between atoms: _317  and  _320
REMARK  131  A    between atoms: _320  and  _321
REMARK  132  A    between atoms: _324  and  _326
REMARK  133  A    between atoms: _326  and  _327
REMARK  134  A    between atoms: _326  and  _329
REMARK  135  A    between atoms: _329  and  _330
REMARK  136  A    between atoms: _333  and  _335
REMARK  137  A    between atoms: _335  and  _336
REMARK  138  A    between atoms: _338  and  _340
REMARK  139  A    between atoms: _340  and  _341
REMARK  140  A    between atoms: _344  and  _346
REMARK  141  A    between atoms: _346  and  _347
REMARK  142  A    between atoms: _346  and  _349
REMARK  143  A    between atoms: _349  and  _350
REMARK  144  A    between atoms: _353  and  _355
REMARK  145  A    between atoms: _355  and  _356
REMARK  146  A    between atoms: _355  and  _358
REMARK  147  A    between atoms: _358  and  _359
REMARK  148  A    between atoms: _362  and  _364
REMARK  149  A    between atoms: _364  and  _365
REMARK  150  A    between atoms: _364  and  _367
REMARK  151  A    between atoms: _367  and  _368
REMARK  152  A    between atoms: _371  and  _373
REMARK  153  A    between atoms: _373  and  _374
REMARK  154  A    between atoms: _373  and  _376
REMARK  155  A    between atoms: _379  and  _381
REMARK  156  A    between atoms: _381  and  _382
REMARK  157  A    between atoms: _381  and  _384
REMARK  158  A    between atoms: _384  and  _385
REMARK  159  A    between atoms: _388  and  _390
REMARK  160  A    between atoms: _390  and  _391
REMARK  161  A    between atoms: _390  and  _393
REMARK  162  A    between atoms: _393  and  _394
REMARK  163  A    between atoms: _394  and  _395
REMARK  164  A    between atoms: _395  and  _396
REMARK  165  A    between atoms: _396  and  _397
REMARK  166  A    between atoms: _401  and  _403
REMARK  167  A    between atoms: _403  and  _404
REMARK  168  A    between atoms: _403  and  _406
REMARK  169  A    between atoms: _406  and  _407
REMARK  170  A    between atoms: _407  and  _408
REMARK  171  A    between atoms: _410  and  _412
REMARK  172  A    between atoms: _412  and  _413
REMARK  173  A    between atoms: _412  and  _415
REMARK  174  A    between atoms: _415  and  _416
REMARK  175  A    between atoms: _419  and  _421
REMARK  176  A    between atoms: _421  and  _422
REMARK  177  A    between atoms: _424  and  _426
REMARK  178  A    between atoms: _426  and  _427
REMARK  179  A    between atoms: _429  and  _431
REMARK  180  A    between atoms: _431  and  _432
REMARK  181  A    between atoms: _431  and  _434
REMARK  182  A    between atoms: _434  and  _435
REMARK  183  A    between atoms: _438  and  _440
REMARK  184  A    between atoms: _440  and  _441
REMARK  185  A    between atoms: _443  and  _445
REMARK  186  A    between atoms: _445  and  _446
REMARK  187  A    between atoms: _448  and  _450
REMARK  188  A    between atoms: _450  and  _451
REMARK  189  A    between atoms: _450  and  _453
REMARK  190  A    between atoms: _453  and  _454
REMARK  191  A    between atoms: _460  and  _462
REMARK  192  A    between atoms: _462  and  _463
REMARK  193  A    between atoms: _462  and  _465
REMARK  194  A    between atoms: _465  and  _466
REMARK  195  A    between atoms: _469  and  _471
REMARK  196  A    between atoms: _471  and  _472
REMARK  197  A    between atoms: _471  and  _474
REMARK  198  A    between atoms: _477  and  _479
REMARK  199  A    between atoms: _479  and  _480
REMARK  200  A    between atoms: _479  and  _482
REMARK  201  A    between atoms: _482  and  _483
REMARK  202  A    between atoms: _487  and  _488
REMARK  203  A    between atoms: _493  and  _495
REMARK  204  A    between atoms: _495  and  _496
REMARK  205  A    between atoms: _495  and  _498
REMARK  206  A    between atoms: _498  and  _499
REMARK  207  A    between atoms: _503  and  _504
REMARK  208  A    between atoms: _509  and  _511
REMARK  209  A    between atoms: _511  and  _512
REMARK  210  A    between atoms: _511  and  _514
REMARK  211  A    between atoms: _517  and  _519
REMARK  212  A    between atoms: _519  and  _520
REMARK  213  A    between atoms: _519  and  _522
REMARK  214  A    between atoms: _522  and  _523
REMARK  215  A    between atoms: _528  and  _530
REMARK  216  A    between atoms: _530  and  _531
REMARK  217  A    between atoms: _530  and  _533
REMARK  218  A    between atoms: _533  and  _534
REMARK  219  A    between atoms: _537  and  _539
REMARK  220  A    between atoms: _539  and  _540
REMARK  221  A    between atoms: _539  and  _542
REMARK  222  A    between atoms: _542  and  _543
REMARK  223  A    between atoms: _546  and  _548
REMARK  224  A    between atoms: _548  and  _549
REMARK  225  A    between atoms: _551  and  _553
REMARK  226  A    between atoms: _553  and  _554
REMARK  227  A    between atoms: _553  and  _556
REMARK  228  A    between atoms: _556  and  _557
REMARK  229  A    between atoms: _557  and  _558
REMARK  230  A    between atoms: _558  and  _559
REMARK  231  A    between atoms: _568  and  _570
REMARK  232  A    between atoms: _570  and  _571
REMARK  233  A    between atoms: _570  and  _573
REMARK  234  A    between atoms: _573  and  _574
REMARK                            x       y       z     vdW  Elec       q    Type
REMARK                         _______ _______ _______ _____ _____    ______ ____
ROOT
ATOM      1  O   HOH     1      20.486 -21.583 -13.940  0.00  0.00    +0.000 OA
ENDROOT
TORSDOF 0
REMARK  Name = ../refined-set-2016/2o4s/2o4s_pocket.pdb
REMARK  234 active torsions:
REMARK  status: ('A' for Active; 'I' for Inactive)
REMARK    1  A    between atoms: _1  and  _3
REMARK    2  A    between atoms: _3  and  _4
REMARK    3  A    between atoms: _3  and  _6
REMARK    4  A    between atoms: _6  and  _7
REMARK    5  A    between atoms: _7  and  _8
REMARK    6  A    between atoms: _8  and  _9
REMARK    7  A    between atoms: _18  and  _20
REMARK    8  A    between atoms: _20  and  _21
REMARK    9  A    between atoms: _20  and  _23
REMARK   10  A    between atoms: _23  and  _24
REMARK   11  A    between atoms: _27  and  _29
REMARK   12  A    between atoms: _29  and  _30
REMARK   13  A    between atoms: _29  and  _32
REMARK   14  A    between atoms: _32  and  _33
REMARK   15  A    between atoms: _36  and  _38
REMARK   16  A    between atoms: _38  and  _39
REMARK   17  A    between atoms: _38  and  _41
REMARK   18  A    between atoms: _41  and  _42
REMARK   19  A    between atoms: _45  and  _47
REMARK   20  A    between atoms: _47  and  _48
REMARK   21  A    between atoms: _47  and  _50
REMARK   22  A    between atoms: _50  and  _51
REMARK   23  A    between atoms: _54  and  _56
REMARK   24  A    between atoms: _56  and  _57
REMARK   25  A    between atoms: _59  and  _61
REMARK   26  A    between atoms: _61  and  _62
REMARK   27  A    between atoms: _65  and  _67
REMARK   28  A    between atoms: _67  and  _68
REMARK   29  A    between atoms: _67  and  _70
REMARK   30  A    between atoms: _70  and  _71
REMARK   31  A    between atoms: _74  and  _76
REMARK   32  A    between atoms: _76  and  _77
REMARK   33  A    between atoms: _76  and  _79
REMARK   34  A    between atoms: _79  and  _80
REMARK   35  A    between atoms: _83  and  _85
REMARK   36  A    between atoms: _85  and  _86
REMARK   37  A    between atoms: _85  and  _88
REMARK   38  A    between atoms: _88  and  _89
REMARK   39  A    between atoms: _92  and  _94
REMARK   40  A    between atoms: _94  and  _95
REMARK   41  A    between atoms: _94  and  _97
REMARK   42  A    between atoms: _100  and  _102
REMARK   43  A    between atoms: _102  and  _103
REMARK   44  A    between atoms: _102  and  _105
REMARK   45  A    between atoms: _105  and  _106
REMARK   46  A    between atoms: _106  and  _107
REMARK   47  A    between atoms: _107  and  _108
REMARK   48  A    between atoms: _108  and  _109
REMARK   49  A    between atoms: _113  and  _115
REMARK   50  A    between atoms: _115  and  _116
REMARK   51  A    between atoms: _115  and  _118
REMARK   52  A    between atoms: _118  and  _119
REMARK   53  A    between atoms: _119  and  _120
REMARK   54  A    between atoms: _122  and  _124
REMARK   55  A    between atoms: _124  and  _125
REMARK   56  A    between atoms: _124  and  _127
REMARK   57  A    between atoms: _127  and  _128
REMARK   58  A    between atoms: _131  and  _133
REMARK   59  A    between atoms: _133  and  _134
REMARK   60  A    between atoms: _136  and  _138
REMARK   61  A    between atoms: _138  and  _139
REMARK   62  A    between atoms: _141  and  _143
REMARK   63  A    between atoms: _143  and  _144
REMARK   64  A    between atoms: _143  and  _146
REMARK   65  A    between atoms: _146  and  _147
REMARK   66  A    between atoms: _150  and  _152
REMARK   67  A    between atoms: _152  and  _153
REMARK   68  A    between atoms: _155  and  _157
REMARK   69  A    between atoms: _157  and  _158
REMARK   70  A    between atoms: _160  and  _162
REMARK   71  A    between atoms: _162  and  _163
REMARK   72  A    between atoms: _162  and  _165
REMARK   73  A    between atoms: _165  and  _166
REMARK   74  A    between atoms: _172  and  _174
REMARK   75  A    between atoms: _174  and  _175
REMARK   76  A    between atoms: _174  and  _177
REMARK   77  A    between atoms: _177  and  _178
REMARK   78  A    between atoms: _181  and  _183
REMARK   79  A    between atoms: _183  and  _184
REMARK   80  A    between atoms: _183  and  _186
REMARK   81  A    between atoms: _189  and  _191
REMARK   82  A    between atoms: _191  and  _192
REMARK   83  A    between atoms: _191  and  _194
REMARK   84  A    between atoms: _194  and  _195
REMARK   85  A    between atoms: _199  and  _200
REMARK   86  A    between atoms: _205  and  _207
REMARK   87  A    between atoms: _207  and  _208
REMARK   88  A    between atoms: _207  and  _210
REMARK   89  A    between atoms: _210  and  _211
REMARK   90  A    between atoms: _215  and  _216
REMARK   91  A    between atoms: _221  and  _223
REMARK   92  A    between atoms: _223  and  _224
REMARK   93  A    between atoms: _223  and  _226
REMARK   94  A    between atoms: _229  and  _231
REMARK   95  A    between atoms: _231  and  _232
REMARK   96  A    between atoms: _231  and  _234
REMARK   97  A    between atoms: _234  and  _235
REMARK   98  A    between atoms: _240  and  _242
REMARK   99  A    between atoms: _242  and  _243
REMARK  100  A    between atoms: _242  and  _245
REMARK  101  A    between atoms: _245  and  _246
REMARK  102  A    between atoms: _249  and  _251
REMARK  103  A    between atoms: _251  and  _252
REMARK  104  A    between atoms: _251  and  _254
REMARK  105  A    between atoms: _254  and  _255
REMARK  106  A    between atoms: _258  and  _260
REMARK  107  A    between atoms: _260  and  _261
REMARK  108  A    between atoms: _263  and  _265
REMARK  109  A    between atoms: _265  and  _266
REMARK  110  A    between atoms: _265  and  _268
REMARK  111  A    between atoms: _268  and  _269
REMARK  112  A    between atoms: _269  and  _270
REMARK  113  A    between atoms: _270  and  _271
REMARK  114  A    between atoms: _280  and  _282
REMARK  115  A    between atoms: _282  and  _283
REMARK  116  A    between atoms: _282  and  _285
REMARK  117  A    between atoms: _285  and  _286
REMARK  118  A    between atoms: _286  and  _287
REMARK  119  A    between atoms: _287  and  _288
REMARK  120  A    between atoms: _297  and  _299
REMARK  121  A    between atoms: _299  and  _300
REMARK  122  A    between atoms: _299  and  _302
REMARK  123  A    between atoms: _302  and  _303
REMARK  124  A    between atoms: _306  and  _308
REMARK  125  A    between atoms: _308  and  _309
REMARK  126  A    between atoms: _308  and  _311
REMARK  127  A    between atoms: _311  and  _312
REMARK  128  A    between atoms: _315  and  _317
REMARK  129  A    between atoms: _317  and  _318
REMARK  130  A    between atoms: _317  and  _320
REMARK  131  A    between atoms: _320  and  _321
REMARK  132  A    between atoms: _324  and  _326
REMARK  133  A    between atoms: _326  and  _327
REMARK  134  A    between atoms: _326  and  _329
REMARK  135  A    between atoms: _329  and  _330
REMARK  136  A    between atoms: _333  and  _335
REMARK  137  A    between atoms: _335  and  _336
REMARK  138  A    between atoms: _338  and  _340
REMARK  139  A    between atoms: _340  and  _341
REMARK  140  A    between atoms: _344  and  _346
REMARK  141  A    between atoms: _346  and  _347
REMARK  142  A    between atoms: _346  and  _349
REMARK  143  A    between atoms: _349  and  _350
REMARK  144  A    between atoms: _353  and  _355
REMARK  145  A    between atoms: _355  and  _356
REMARK  146  A    between atoms: _355  and  _358
REMARK  147  A    between atoms: _358  and  _359
REMARK  148  A    between atoms: _362  and  _364
REMARK  149  A    between atoms: _364  and  _365
REMARK  150  A    between atoms: _364  and  _367
REMARK  151  A    between atoms: _367  and  _368
REMARK  152  A    between atoms: _371  and  _373
REMARK  153  A    between atoms: _373  and  _374
REMARK  154  A    between atoms: _373  and  _376
REMARK  155  A    between atoms: _379  and  _381
REMARK  156  A    between atoms: _381  and  _382
REMARK  157  A    between atoms: _381  and  _384
REMARK  158  A    between atoms: _384  and  _385
REMARK  159  A    between atoms: _388  and  _390
REMARK  160  A    between atoms: _390  and  _391
REMARK  161  A    between atoms: _390  and  _393
REMARK  162  A    between atoms: _393  and  _394
REMARK  163  A    between atoms: _394  and  _395
REMARK  164  A    between atoms: _395  and  _396
REMARK  165  A    between atoms: _396  and  _397
REMARK  166  A    between atoms: _401  and  _403
REMARK  167  A    between atoms: _403  and  _404
REMARK  168  A    between atoms: _403  and  _406
REMARK  169  A    between atoms: _406  and  _407
REMARK  170  A    between atoms: _407  and  _408
REMARK  171  A    between atoms: _410  and  _412
REMARK  172  A    between atoms: _412  and  _413
REMARK  173  A    between atoms: _412  and  _415
REMARK  174  A    between atoms: _415  and  _416
REMARK  175  A    between atoms: _419  and  _421
REMARK  176  A    between atoms: _421  and  _422
REMARK  177  A    between atoms: _424  and  _426
REMARK  178  A    between atoms: _426  and  _427
REMARK  179  A    between atoms: _429  and  _431
REMARK  180  A    between atoms: _431  and  _432
REMARK  181  A    between atoms: _431  and  _434
REMARK  182  A    between atoms: _434  and  _435
REMARK  183  A    between atoms: _438  and  _440
REMARK  184  A    between atoms: _440  and  _441
REMARK  185  A    between atoms: _443  and  _445
REMARK  186  A    between atoms: _445  and  _446
REMARK  187  A    between atoms: _448  and  _450
REMARK  188  A    between atoms: _450  and  _451
REMARK  189  A    between atoms: _450  and  _453
REMARK  190  A    between atoms: _453  and  _454
REMARK  191  A    between atoms: _460  and  _462
REMARK  192  A    between atoms: _462  and  _463
REMARK  193  A    between atoms: _462  and  _465
REMARK  194  A    between atoms: _465  and  _466
REMARK  195  A    between atoms: _469  and  _471
REMARK  196  A    between atoms: _471  and  _472
REMARK  197  A    between atoms: _471  and  _474
REMARK  198  A    between atoms: _477  and  _479
REMARK  199  A    between atoms: _479  and  _480
REMARK  200  A    between atoms: _479  and  _482
REMARK  201  A    between atoms: _482  and  _483
REMARK  202  A    between atoms: _487  and  _488
REMARK  203  A    between atoms: _493  and  _495
REMARK  204  A    between atoms: _495  and  _496
REMARK  205  A    between atoms: _495  and  _498
REMARK  206  A    between atoms: _498  and  _499
REMARK  207  A    between atoms: _503  and  _504
REMARK  208  A    between atoms: _509  and  _511
REMARK  209  A    between atoms: _511  and  _512
REMARK  210  A    between atoms: _511  and  _514
REMARK  211  A    between atoms: _517  and  _519
REMARK  212  A    between atoms: _519  and  _520
REMARK  213  A    between atoms: _519  and  _522
REMARK  214  A    between atoms: _522  and  _523
REMARK  215  A    between atoms: _528  and  _530
REMARK  216  A    between atoms: _530  and  _531
REMARK  217  A    between atoms: _530  and  _533
REMARK  218  A    between atoms: _533  and  _534
REMARK  219  A    between atoms: _537  and  _539
REMARK  220  A    between atoms: _539  and  _540
REMARK  221  A    between atoms: _539  and  _542
REMARK  222  A    between atoms: _542  and  _543
REMARK  223  A    between atoms: _546  and  _548
REMARK  224  A    between atoms: _548  and  _549
REMARK  225  A    between atoms: _551  and  _553
REMARK  226  A    between atoms: _553  and  _554
REMARK  227  A    between atoms: _553  and  _556
REMARK  228  A    between atoms: _556  and  _557
REMARK  229  A    between atoms: _557  and  _558
REMARK  230  A    between atoms: _558  and  _559
REMARK  231  A    between atoms: _568  and  _570
REMARK  232  A    between atoms: _570  and  _571
REMARK  233  A    between atoms: _570  and  _573
REMARK  234  A    between atoms: _573  and  _574
REMARK                            x       y       z     vdW  Elec       q    Type
REMARK                         _______ _______ _______ _____ _____    ______ ____
ROOT
ATOM      1  O   HOH     1       2.980 -18.994 -18.246  0.00  0.00    +0.000 OA
ENDROOT
TORSDOF 0
REMARK  Name = ../refined-set-2016/2o4s/2o4s_pocket.pdb
REMARK  234 active torsions:
REMARK  status: ('A' for Active; 'I' for Inactive)
REMARK    1  A    between atoms: _1  and  _3
REMARK    2  A    between atoms: _3  and  _4
REMARK    3  A    between atoms: _3  and  _6
REMARK    4  A    between atoms: _6  and  _7
REMARK    5  A    between atoms: _7  and  _8
REMARK    6  A    between atoms: _8  and  _9
REMARK    7  A    between atoms: _18  and  _20
REMARK    8  A    between atoms: _20  and  _21
REMARK    9  A    between atoms: _20  and  _23
REMARK   10  A    between atoms: _23  and  _24
REMARK   11  A    between atoms: _27  and  _29
REMARK   12  A    between atoms: _29  and  _30
REMARK   13  A    between atoms: _29  and  _32
REMARK   14  A    between atoms: _32  and  _33
REMARK   15  A    between atoms: _36  and  _38
REMARK   16  A    between atoms: _38  and  _39
REMARK   17  A    between atoms: _38  and  _41
REMARK   18  A    between atoms: _41  and  _42
REMARK   19  A    between atoms: _45  and  _47
REMARK   20  A    between atoms: _47  and  _48
REMARK   21  A    between atoms: _47  and  _50
REMARK   22  A    between atoms: _50  and  _51
REMARK   23  A    between atoms: _54  and  _56
REMARK   24  A    between atoms: _56  and  _57
REMARK   25  A    between atoms: _59  and  _61
REMARK   26  A    between atoms: _61  and  _62
REMARK   27  A    between atoms: _65  and  _67
REMARK   28  A    between atoms: _67  and  _68
REMARK   29  A    between atoms: _67  and  _70
REMARK   30  A    between atoms: _70  and  _71
REMARK   31  A    between atoms: _74  and  _76
REMARK   32  A    between atoms: _76  and  _77
REMARK   33  A    between atoms: _76  and  _79
REMARK   34  A    between atoms: _79  and  _80
REMARK   35  A    between atoms: _83  and  _85
REMARK   36  A    between atoms: _85  and  _86
REMARK   37  A    between atoms: _85  and  _88
REMARK   38  A    between atoms: _88  and  _89
REMARK   39  A    between atoms: _92  and  _94
REMARK   40  A    between atoms: _94  and  _95
REMARK   41  A    between atoms: _94  and  _97
REMARK   42  A    between atoms: _100  and  _102
REMARK   43  A    between atoms: _102  and  _103
REMARK   44  A    between atoms: _102  and  _105
REMARK   45  A    between atoms: _105  and  _106
REMARK   46  A    between atoms: _106  and  _107
REMARK   47  A    between atoms: _107  and  _108
REMARK   48  A    between atoms: _108  and  _109
REMARK   49  A    between atoms: _113  and  _115
REMARK   50  A    between atoms: _115  and  _116
REMARK   51  A    between atoms: _115  and  _118
REMARK   52  A    between atoms: _118  and  _119
REMARK   53  A    between atoms: _119  and  _120
REMARK   54  A    between atoms: _122  and  _124
REMARK   55  A    between atoms: _124  and  _125
REMARK   56  A    between atoms: _124  and  _127
REMARK   57  A    between atoms: _127  and  _128
REMARK   58  A    between atoms: _131  and  _133
REMARK   59  A    between atoms: _133  and  _134
REMARK   60  A    between atoms: _136  and  _138
REMARK   61  A    between atoms: _138  and  _139
REMARK   62  A    between atoms: _141  and  _143
REMARK   63  A    between atoms: _143  and  _144
REMARK   64  A    between atoms: _143  and  _146
REMARK   65  A    between atoms: _146  and  _147
REMARK   66  A    between atoms: _150  and  _152
REMARK   67  A    between atoms: _152  and  _153
REMARK   68  A    between atoms: _155  and  _157
REMARK   69  A    between atoms: _157  and  _158
REMARK   70  A    between atoms: _160  and  _162
REMARK   71  A    between atoms: _162  and  _163
REMARK   72  A    between atoms: _162  and  _165
REMARK   73  A    between atoms: _165  and  _166
REMARK   74  A    between atoms: _172  and  _174
REMARK   75  A    between atoms: _174  and  _175
REMARK   76  A    between atoms: _174  and  _177
REMARK   77  A    between atoms: _177  and  _178
REMARK   78  A    between atoms: _181  and  _183
REMARK   79  A    between atoms: _183  and  _184
REMARK   80  A    between atoms: _183  and  _186
REMARK   81  A    between atoms: _189  and  _191
REMARK   82  A    between atoms: _191  and  _192
REMARK   83  A    between atoms: _191  and  _194
REMARK   84  A    between atoms: _194  and  _195
REMARK   85  A    between atoms: _199  and  _200
REMARK   86  A    between atoms: _205  and  _207
REMARK   87  A    between atoms: _207  and  _208
REMARK   88  A    between atoms: _207  and  _210
REMARK   89  A    between atoms: _210  and  _211
REMARK   90  A    between atoms: _215  and  _216
REMARK   91  A    between atoms: _221  and  _223
REMARK   92  A    between atoms: _223  and  _224
REMARK   93  A    between atoms: _223  and  _226
REMARK   94  A    between atoms: _229  and  _231
REMARK   95  A    between atoms: _231  and  _232
REMARK   96  A    between atoms: _231  and  _234
REMARK   97  A    between atoms: _234  and  _235
REMARK   98  A    between atoms: _240  and  _242
REMARK   99  A    between atoms: _242  and  _243
REMARK  100  A    between atoms: _242  and  _245
REMARK  101  A    between atoms: _245  and  _246
REMARK  102  A    between atoms: _249  and  _251
REMARK  103  A    between atoms: _251  and  _252
REMARK  104  A    between atoms: _251  and  _254
REMARK  105  A    between atoms: _254  and  _255
REMARK  106  A    between atoms: _258  and  _260
REMARK  107  A    between atoms: _260  and  _261
REMARK  108  A    between atoms: _263  and  _265
REMARK  109  A    between atoms: _265  and  _266
REMARK  110  A    between atoms: _265  and  _268
REMARK  111  A    between atoms: _268  and  _269
REMARK  112  A    between atoms: _269  and  _270
REMARK  113  A    between atoms: _270  and  _271
REMARK  114  A    between atoms: _280  and  _282
REMARK  115  A    between atoms: _282  and  _283
REMARK  116  A    between atoms: _282  and  _285
REMARK  117  A    between atoms: _285  and  _286
REMARK  118  A    between atoms: _286  and  _287
REMARK  119  A    between atoms: _287  and  _288
REMARK  120  A    between atoms: _297  and  _299
REMARK  121  A    between atoms: _299  and  _300
REMARK  122  A    between atoms: _299  and  _302
REMARK  123  A    between atoms: _302  and  _303
REMARK  124  A    between atoms: _306  and  _308
REMARK  125  A    between atoms: _308  and  _309
REMARK  126  A    between atoms: _308  and  _311
REMARK  127  A    between atoms: _311  and  _312
REMARK  128  A    between atoms: _315  and  _317
REMARK  129  A    between atoms: _317  and  _318
REMARK  130  A    between atoms: _317  and  _320
REMARK  131  A    between atoms: _320  and  _321
REMARK  132  A    between atoms: _324  and  _326
REMARK  133  A    between atoms: _326  and  _327
REMARK  134  A    between atoms: _326  and  _329
REMARK  135  A    between atoms: _329  and  _330
REMARK  136  A    between atoms: _333  and  _335
REMARK  137  A    between atoms: _335  and  _336
REMARK  138  A    between atoms: _338  and  _340
REMARK  139  A    between atoms: _340  and  _341
REMARK  140  A    between atoms: _344  and  _346
REMARK  141  A    between atoms: _346  and  _347
REMARK  142  A    between atoms: _346  and  _349
REMARK  143  A    between atoms: _349  and  _350
REMARK  144  A    between atoms: _353  and  _355
REMARK  145  A    between atoms: _355  and  _356
REMARK  146  A    between atoms: _355  and  _358
REMARK  147  A    between atoms: _358  and  _359
REMARK  148  A    between atoms: _362  and  _364
REMARK  149  A    between atoms: _364  and  _365
REMARK  150  A    between atoms: _364  and  _367
REMARK  151  A    between atoms: _367  and  _368
REMARK  152  A    between atoms: _371  and  _373
REMARK  153  A    between atoms: _373  and  _374
REMARK  154  A    between atoms: _373  and  _376
REMARK  155  A    between atoms: _379  and  _381
REMARK  156  A    between atoms: _381  and  _382
REMARK  157  A    between atoms: _381  and  _384
REMARK  158  A    between atoms: _384  and  _385
REMARK  159  A    between atoms: _388  and  _390
REMARK  160  A    between atoms: _390  and  _391
REMARK  161  A    between atoms: _390  and  _393
REMARK  162  A    between atoms: _393  and  _394
REMARK  163  A    between atoms: _394  and  _395
REMARK  164  A    between atoms: _395  and  _396
REMARK  165  A    between atoms: _396  and  _397
REMARK  166  A    between atoms: _401  and  _403
REMARK  167  A    between atoms: _403  and  _404
REMARK  168  A    between atoms: _403  and  _406
REMARK  169  A    between atoms: _406  and  _407
REMARK  170  A    between atoms: _407  and  _408
REMARK  171  A    between atoms: _410  and  _412
REMARK  172  A    between atoms: _412  and  _413
REMARK  173  A    between atoms: _412  and  _415
REMARK  174  A    between atoms: _415  and  _416
REMARK  175  A    between atoms: _419  and  _421
REMARK  176  A    between atoms: _421  and  _422
REMARK  177  A    between atoms: _424  and  _426
REMARK  178  A    between atoms: _426  and  _427
REMARK  179  A    between atoms: _429  and  _431
REMARK  180  A    between atoms: _431  and  _432
REMARK  181  A    between atoms: _431  and  _434
REMARK  182  A    between atoms: _434  and  _435
REMARK  183  A    between atoms: _438  and  _440
REMARK  184  A    between atoms: _440  and  _441
REMARK  185  A    between atoms: _443  and  _445
REMARK  186  A    between atoms: _445  and  _446
REMARK  187  A    between atoms: _448  and  _450
REMARK  188  A    between atoms: _450  and  _451
REMARK  189  A    between atoms: _450  and  _453
REMARK  190  A    between atoms: _453  and  _454
REMARK  191  A    between atoms: _460  and  _462
REMARK  192  A    between atoms: _462  and  _463
REMARK  193  A    between atoms: _462  and  _465
REMARK  194  A    between atoms: _465  and  _466
REMARK  195  A    between atoms: _469  and  _471
REMARK  196  A    between atoms: _471  and  _472
REMARK  197  A    between atoms: _471  and  _474
REMARK  198  A    between atoms: _477  and  _479
REMARK  199  A    between atoms: _479  and  _480
REMARK  200  A    between atoms: _479  and  _482
REMARK  201  A    between atoms: _482  and  _483
REMARK  202  A    between atoms: _487  and  _488
REMARK  203  A    between atoms: _493  and  _495
REMARK  204  A    between atoms: _495  and  _496
REMARK  205  A    between atoms: _495  and  _498
REMARK  206  A    between atoms: _498  and  _499
REMARK  207  A    between atoms: _503  and  _504
REMARK  208  A    between atoms: _509  and  _511
REMARK  209  A    between atoms: _511  and  _512
REMARK  210  A    between atoms: _511  and  _514
REMARK  211  A    between atoms: _517  and  _519
REMARK  212  A    between atoms: _519  and  _520
REMARK  213  A    between atoms: _519  and  _522
REMARK  214  A    between atoms: _522  and  _523
REMARK  215  A    between atoms: _528  and  _530
REMARK  216  A    between atoms: _530  and  _531
REMARK  217  A    between atoms: _530  and  _533
REMARK  218  A    between atoms: _533  and  _534
REMARK  219  A    between atoms: _537  and  _539
REMARK  220  A    between atoms: _539  and  _540
REMARK  221  A    between atoms: _539  and  _542
REMARK  222  A    between atoms: _542  and  _543
REMARK  223  A    between atoms: _546  and  _548
REMARK  224  A    between atoms: _548  and  _549
REMARK  225  A    between atoms: _551  and  _553
REMARK  226  A    between atoms: _553  and  _554
REMARK  227  A    between atoms: _553  and  _556
REMARK  228  A    between atoms: _556  and  _557
REMARK  229  A    between atoms: _557  and  _558
REMARK  230  A    between atoms: _558  and  _559
REMARK  231  A    between atoms: _568  and  _570
REMARK  232  A    between atoms: _570  and  _571
REMARK  233  A    between atoms: _570  and  _573
REMARK  234  A    between atoms: _573  and  _574
REMARK                            x       y       z     vdW  Elec       q    Type
REMARK                         _______ _______ _______ _____ _____    ______ ____
ROOT
ATOM      1  O   HOH     1       2.452 -15.349 -15.084  0.00  0.00    +0.000 OA
ENDROOT
TORSDOF 0
REMARK  Name = ../refined-set-2016/2o4s/2o4s_pocket.pdb
REMARK  234 active torsions:
REMARK  status: ('A' for Active; 'I' for Inactive)
REMARK    1  A    between atoms: _1  and  _3
REMARK    2  A    between atoms: _3  and  _4
REMARK    3  A    between atoms: _3  and  _6
REMARK    4  A    between atoms: _6  and  _7
REMARK    5  A    between atoms: _7  and  _8
REMARK    6  A    between atoms: _8  and  _9
REMARK    7  A    between atoms: _18  and  _20
REMARK    8  A    between atoms: _20  and  _21
REMARK    9  A    between atoms: _20  and  _23
REMARK   10  A    between atoms: _23  and  _24
REMARK   11  A    between atoms: _27  and  _29
REMARK   12  A    between atoms: _29  and  _30
REMARK   13  A    between atoms: _29  and  _32
REMARK   14  A    between atoms: _32  and  _33
REMARK   15  A    between atoms: _36  and  _38
REMARK   16  A    between atoms: _38  and  _39
REMARK   17  A    between atoms: _38  and  _41
REMARK   18  A    between atoms: _41  and  _42
REMARK   19  A    between atoms: _45  and  _47
REMARK   20  A    between atoms: _47  and  _48
REMARK   21  A    between atoms: _47  and  _50
REMARK   22  A    between atoms: _50  and  _51
REMARK   23  A    between atoms: _54  and  _56
REMARK   24  A    between atoms: _56  and  _57
REMARK   25  A    between atoms: _59  and  _61
REMARK   26  A    between atoms: _61  and  _62
REMARK   27  A    between atoms: _65  and  _67
REMARK   28  A    between atoms: _67  and  _68
REMARK   29  A    between atoms: _67  and  _70
REMARK   30  A    between atoms: _70  and  _71
REMARK   31  A    between atoms: _74  and  _76
REMARK   32  A    between atoms: _76  and  _77
REMARK   33  A    between atoms: _76  and  _79
REMARK   34  A    between atoms: _79  and  _80
REMARK   35  A    between atoms: _83  and  _85
REMARK   36  A    between atoms: _85  and  _86
REMARK   37  A    between atoms: _85  and  _88
REMARK   38  A    between atoms: _88  and  _89
REMARK   39  A    between atoms: _92  and  _94
REMARK   40  A    between atoms: _94  and  _95
REMARK   41  A    between atoms: _94  and  _97
REMARK   42  A    between atoms: _100  and  _102
REMARK   43  A    between atoms: _102  and  _103
REMARK   44  A    between atoms: _102  and  _105
REMARK   45  A    between atoms: _105  and  _106
REMARK   46  A    between atoms: _106  and  _107
REMARK   47  A    between atoms: _107  and  _108
REMARK   48  A    between atoms: _108  and  _109
REMARK   49  A    between atoms: _113  and  _115
REMARK   50  A    between atoms: _115  and  _116
REMARK   51  A    between atoms: _115  and  _118
REMARK   52  A    between atoms: _118  and  _119
REMARK   53  A    between atoms: _119  and  _120
REMARK   54  A    between atoms: _122  and  _124
REMARK   55  A    between atoms: _124  and  _125
REMARK   56  A    between atoms: _124  and  _127
REMARK   57  A    between atoms: _127  and  _128
REMARK   58  A    between atoms: _131  and  _133
REMARK   59  A    between atoms: _133  and  _134
REMARK   60  A    between atoms: _136  and  _138
REMARK   61  A    between atoms: _138  and  _139
REMARK   62  A    between atoms: _141  and  _143
REMARK   63  A    between atoms: _143  and  _144
REMARK   64  A    between atoms: _143  and  _146
REMARK   65  A    between atoms: _146  and  _147
REMARK   66  A    between atoms: _150  and  _152
REMARK   67  A    between atoms: _152  and  _153
REMARK   68  A    between atoms: _155  and  _157
REMARK   69  A    between atoms: _157  and  _158
REMARK   70  A    between atoms: _160  and  _162
REMARK   71  A    between atoms: _162  and  _163
REMARK   72  A    between atoms: _162  and  _165
REMARK   73  A    between atoms: _165  and  _166
REMARK   74  A    between atoms: _172  and  _174
REMARK   75  A    between atoms: _174  and  _175
REMARK   76  A    between atoms: _174  and  _177
REMARK   77  A    between atoms: _177  and  _178
REMARK   78  A    between atoms: _181  and  _183
REMARK   79  A    between atoms: _183  and  _184
REMARK   80  A    between atoms: _183  and  _186
REMARK   81  A    between atoms: _189  and  _191
REMARK   82  A    between atoms: _191  and  _192
REMARK   83  A    between atoms: _191  and  _194
REMARK   84  A    between atoms: _194  and  _195
REMARK   85  A    between atoms: _199  and  _200
REMARK   86  A    between atoms: _205  and  _207
REMARK   87  A    between atoms: _207  and  _208
REMARK   88  A    between atoms: _207  and  _210
REMARK   89  A    between atoms: _210  and  _211
REMARK   90  A    between atoms: _215  and  _216
REMARK   91  A    between atoms: _221  and  _223
REMARK   92  A    between atoms: _223  and  _224
REMARK   93  A    between atoms: _223  and  _226
REMARK   94  A    between atoms: _229  and  _231
REMARK   95  A    between atoms: _231  and  _232
REMARK   96  A    between atoms: _231  and  _234
REMARK   97  A    between atoms: _234  and  _235
REMARK   98  A    between atoms: _240  and  _242
REMARK   99  A    between atoms: _242  and  _243
REMARK  100  A    between atoms: _242  and  _245
REMARK  101  A    between atoms: _245  and  _246
REMARK  102  A    between atoms: _249  and  _251
REMARK  103  A    between atoms: _251  and  _252
REMARK  104  A    between atoms: _251  and  _254
REMARK  105  A    between atoms: _254  and  _255
REMARK  106  A    between atoms: _258  and  _260
REMARK  107  A    between atoms: _260  and  _261
REMARK  108  A    between atoms: _263  and  _265
REMARK  109  A    between atoms: _265  and  _266
REMARK  110  A    between atoms: _265  and  _268
REMARK  111  A    between atoms: _268  and  _269
REMARK  112  A    between atoms: _269  and  _270
REMARK  113  A    between atoms: _270  and  _271
REMARK  114  A    between atoms: _280  and  _282
REMARK  115  A    between atoms: _282  and  _283
REMARK  116  A    between atoms: _282  and  _285
REMARK  117  A    between atoms: _285  and  _286
REMARK  118  A    between atoms: _286  and  _287
REMARK  119  A    between atoms: _287  and  _288
REMARK  120  A    between atoms: _297  and  _299
REMARK  121  A    between atoms: _299  and  _300
REMARK  122  A    between atoms: _299  and  _302
REMARK  123  A    between atoms: _302  and  _303
REMARK  124  A    between atoms: _306  and  _308
REMARK  125  A    between atoms: _308  and  _309
REMARK  126  A    between atoms: _308  and  _311
REMARK  127  A    between atoms: _311  and  _312
REMARK  128  A    between atoms: _315  and  _317
REMARK  129  A    between atoms: _317  and  _318
REMARK  130  A    between atoms: _317  and  _320
REMARK  131  A    between atoms: _320  and  _321
REMARK  132  A    between atoms: _324  and  _326
REMARK  133  A    between atoms: _326  and  _327
REMARK  134  A    between atoms: _326  and  _329
REMARK  135  A    between atoms: _329  and  _330
REMARK  136  A    between atoms: _333  and  _335
REMARK  137  A    between atoms: _335  and  _336
REMARK  138  A    between atoms: _338  and  _340
REMARK  139  A    between atoms: _340  and  _341
REMARK  140  A    between atoms: _344  and  _346
REMARK  141  A    between atoms: _346  and  _347
REMARK  142  A    between atoms: _346  and  _349
REMARK  143  A    between atoms: _349  and  _350
REMARK  144  A    between atoms: _353  and  _355
REMARK  145  A    between atoms: _355  and  _356
REMARK  146  A    between atoms: _355  and  _358
REMARK  147  A    between atoms: _358  and  _359
REMARK  148  A    between atoms: _362  and  _364
REMARK  149  A    between atoms: _364  and  _365
REMARK  150  A    between atoms: _364  and  _367
REMARK  151  A    between atoms: _367  and  _368
REMARK  152  A    between atoms: _371  and  _373
REMARK  153  A    between atoms: _373  and  _374
REMARK  154  A    between atoms: _373  and  _376
REMARK  155  A    between atoms: _379  and  _381
REMARK  156  A    between atoms: _381  and  _382
REMARK  157  A    between atoms: _381  and  _384
REMARK  158  A    between atoms: _384  and  _385
REMARK  159  A    between atoms: _388  and  _390
REMARK  160  A    between atoms: _390  and  _391
REMARK  161  A    between atoms: _390  and  _393
REMARK  162  A    between atoms: _393  and  _394
REMARK  163  A    between atoms: _394  and  _395
REMARK  164  A    between atoms: _395  and  _396
REMARK  165  A    between atoms: _396  and  _397
REMARK  166  A    between atoms: _401  and  _403
REMARK  167  A    between atoms: _403  and  _404
REMARK  168  A    between atoms: _403  and  _406
REMARK  169  A    between atoms: _406  and  _407
REMARK  170  A    between atoms: _407  and  _408
REMARK  171  A    between atoms: _410  and  _412
REMARK  172  A    between atoms: _412  and  _413
REMARK  173  A    between atoms: _412  and  _415
REMARK  174  A    between atoms: _415  and  _416
REMARK  175  A    between atoms: _419  and  _421
REMARK  176  A    between atoms: _421  and  _422
REMARK  177  A    between atoms: _424  and  _426
REMARK  178  A    between atoms: _426  and  _427
REMARK  179  A    between atoms: _429  and  _431
REMARK  180  A    between atoms: _431  and  _432
REMARK  181  A    between atoms: _431  and  _434
REMARK  182  A    between atoms: _434  and  _435
REMARK  183  A    between atoms: _438  and  _440
REMARK  184  A    between atoms: _440  and  _441
REMARK  185  A    between atoms: _443  and  _445
REMARK  186  A    between atoms: _445  and  _446
REMARK  187  A    between atoms: _448  and  _450
REMARK  188  A    between atoms: _450  and  _451
REMARK  189  A    between atoms: _450  and  _453
REMARK  190  A    between atoms: _453  and  _454
REMARK  191  A    between atoms: _460  and  _462
REMARK  192  A    between atoms: _462  and  _463
REMARK  193  A    between atoms: _462  and  _465
REMARK  194  A    between atoms: _465  and  _466
REMARK  195  A    between atoms: _469  and  _471
REMARK  196  A    between atoms: _471  and  _472
REMARK  197  A    between atoms: _471  and  _474
REMARK  198  A    between atoms: _477  and  _479
REMARK  199  A    between atoms: _479  and  _480
REMARK  200  A    between atoms: _479  and  _482
REMARK  201  A    between atoms: _482  and  _483
REMARK  202  A    between atoms: _487  and  _488
REMARK  203  A    between atoms: _493  and  _495
REMARK  204  A    between atoms: _495  and  _496
REMARK  205  A    between atoms: _495  and  _498
REMARK  206  A    between atoms: _498  and  _499
REMARK  207  A    between atoms: _503  and  _504
REMARK  208  A    between atoms: _509  and  _511
REMARK  209  A    between atoms: _511  and  _512
REMARK  210  A    between atoms: _511  and  _514
REMARK  211  A    between atoms: _517  and  _519
REMARK  212  A    between atoms: _519  and  _520
REMARK  213  A    between atoms: _519  and  _522
REMARK  214  A    between atoms: _522  and  _523
REMARK  215  A    between atoms: _528  and  _530
REMARK  216  A    between atoms: _530  and  _531
REMARK  217  A    between atoms: _530  and  _533
REMARK  218  A    between atoms: _533  and  _534
REMARK  219  A    between atoms: _537  and  _539
REMARK  220  A    between atoms: _539  and  _540
REMARK  221  A    between atoms: _539  and  _542
REMARK  222  A    between atoms: _542  and  _543
REMARK  223  A    between atoms: _546  and  _548
REMARK  224  A    between atoms: _548  and  _549
REMARK  225  A    between atoms: _551  and  _553
REMARK  226  A    between atoms: _553  and  _554
REMARK  227  A    between atoms: _553  and  _556
REMARK  228  A    between atoms: _556  and  _557
REMARK  229  A    between atoms: _557  and  _558
REMARK  230  A    between atoms: _558  and  _559
REMARK  231  A    between atoms: _568  and  _570
REMARK  232  A    between atoms: _570  and  _571
REMARK  233  A    between atoms: _570  and  _573
REMARK  234  A    between atoms: _573  and  _574
REMARK                            x       y       z     vdW  Elec       q    Type
REMARK                         _______ _______ _______ _____ _____    ______ ____
ROOT
ATOM      1  O   HOH     1       6.887  -8.692 -12.756  0.00  0.00    +0.000 OA
ENDROOT
TORSDOF 0
REMARK  Name = ../refined-set-2016/2o4s/2o4s_pocket.pdb
REMARK  234 active torsions:
REMARK  status: ('A' for Active; 'I' for Inactive)
REMARK    1  A    between atoms: _1  and  _3
REMARK    2  A    between atoms: _3  and  _4
REMARK    3  A    between atoms: _3  and  _6
REMARK    4  A    between atoms: _6  and  _7
REMARK    5  A    between atoms: _7  and  _8
REMARK    6  A    between atoms: _8  and  _9
REMARK    7  A    between atoms: _18  and  _20
REMARK    8  A    between atoms: _20  and  _21
REMARK    9  A    between atoms: _20  and  _23
REMARK   10  A    between atoms: _23  and  _24
REMARK   11  A    between atoms: _27  and  _29
REMARK   12  A    between atoms: _29  and  _30
REMARK   13  A    between atoms: _29  and  _32
REMARK   14  A    between atoms: _32  and  _33
REMARK   15  A    between atoms: _36  and  _38
REMARK   16  A    between atoms: _38  and  _39
REMARK   17  A    between atoms: _38  and  _41
REMARK   18  A    between atoms: _41  and  _42
REMARK   19  A    between atoms: _45  and  _47
REMARK   20  A    between atoms: _47  and  _48
REMARK   21  A    between atoms: _47  and  _50
REMARK   22  A    between atoms: _50  and  _51
REMARK   23  A    between atoms: _54  and  _56
REMARK   24  A    between atoms: _56  and  _57
REMARK   25  A    between atoms: _59  and  _61
REMARK   26  A    between atoms: _61  and  _62
REMARK   27  A    between atoms: _65  and  _67
REMARK   28  A    between atoms: _67  and  _68
REMARK   29  A    between atoms: _67  and  _70
REMARK   30  A    between atoms: _70  and  _71
REMARK   31  A    between atoms: _74  and  _76
REMARK   32  A    between atoms: _76  and  _77
REMARK   33  A    between atoms: _76  and  _79
REMARK   34  A    between atoms: _79  and  _80
REMARK   35  A    between atoms: _83  and  _85
REMARK   36  A    between atoms: _85  and  _86
REMARK   37  A    between atoms: _85  and  _88
REMARK   38  A    between atoms: _88  and  _89
REMARK   39  A    between atoms: _92  and  _94
REMARK   40  A    between atoms: _94  and  _95
REMARK   41  A    between atoms: _94  and  _97
REMARK   42  A    between atoms: _100  and  _102
REMARK   43  A    between atoms: _102  and  _103
REMARK   44  A    between atoms: _102  and  _105
REMARK   45  A    between atoms: _105  and  _106
REMARK   46  A    between atoms: _106  and  _107
REMARK   47  A    between atoms: _107  and  _108
REMARK   48  A    between atoms: _108  and  _109
REMARK   49  A    between atoms: _113  and  _115
REMARK   50  A    between atoms: _115  and  _116
REMARK   51  A    between atoms: _115  and  _118
REMARK   52  A    between atoms: _118  and  _119
REMARK   53  A    between atoms: _119  and  _120
REMARK   54  A    between atoms: _122  and  _124
REMARK   55  A    between atoms: _124  and  _125
REMARK   56  A    between atoms: _124  and  _127
REMARK   57  A    between atoms: _127  and  _128
REMARK   58  A    between atoms: _131  and  _133
REMARK   59  A    between atoms: _133  and  _134
REMARK   60  A    between atoms: _136  and  _138
REMARK   61  A    between atoms: _138  and  _139
REMARK   62  A    between atoms: _141  and  _143
REMARK   63  A    between atoms: _143  and  _144
REMARK   64  A    between atoms: _143  and  _146
REMARK   65  A    between atoms: _146  and  _147
REMARK   66  A    between atoms: _150  and  _152
REMARK   67  A    between atoms: _152  and  _153
REMARK   68  A    between atoms: _155  and  _157
REMARK   69  A    between atoms: _157  and  _158
REMARK   70  A    between atoms: _160  and  _162
REMARK   71  A    between atoms: _162  and  _163
REMARK   72  A    between atoms: _162  and  _165
REMARK   73  A    between atoms: _165  and  _166
REMARK   74  A    between atoms: _172  and  _174
REMARK   75  A    between atoms: _174  and  _175
REMARK   76  A    between atoms: _174  and  _177
REMARK   77  A    between atoms: _177  and  _178
REMARK   78  A    between atoms: _181  and  _183
REMARK   79  A    between atoms: _183  and  _184
REMARK   80  A    between atoms: _183  and  _186
REMARK   81  A    between atoms: _189  and  _191
REMARK   82  A    between atoms: _191  and  _192
REMARK   83  A    between atoms: _191  and  _194
REMARK   84  A    between atoms: _194  and  _195
REMARK   85  A    between atoms: _199  and  _200
REMARK   86  A    between atoms: _205  and  _207
REMARK   87  A    between atoms: _207  and  _208
REMARK   88  A    between atoms: _207  and  _210
REMARK   89  A    between atoms: _210  and  _211
REMARK   90  A    between atoms: _215  and  _216
REMARK   91  A    between atoms: _221  and  _223
REMARK   92  A    between atoms: _223  and  _224
REMARK   93  A    between atoms: _223  and  _226
REMARK   94  A    between atoms: _229  and  _231
REMARK   95  A    between atoms: _231  and  _232
REMARK   96  A    between atoms: _231  and  _234
REMARK   97  A    between atoms: _234  and  _235
REMARK   98  A    between atoms: _240  and  _242
REMARK   99  A    between atoms: _242  and  _243
REMARK  100  A    between atoms: _242  and  _245
REMARK  101  A    between atoms: _245  and  _246
REMARK  102  A    between atoms: _249  and  _251
REMARK  103  A    between atoms: _251  and  _252
REMARK  104  A    between atoms: _251  and  _254
REMARK  105  A    between atoms: _254  and  _255
REMARK  106  A    between atoms: _258  and  _260
REMARK  107  A    between atoms: _260  and  _261
REMARK  108  A    between atoms: _263  and  _265
REMARK  109  A    between atoms: _265  and  _266
REMARK  110  A    between atoms: _265  and  _268
REMARK  111  A    between atoms: _268  and  _269
REMARK  112  A    between atoms: _269  and  _270
REMARK  113  A    between atoms: _270  and  _271
REMARK  114  A    between atoms: _280  and  _282
REMARK  115  A    between atoms: _282  and  _283
REMARK  116  A    between atoms: _282  and  _285
REMARK  117  A    between atoms: _285  and  _286
REMARK  118  A    between atoms: _286  and  _287
REMARK  119  A    between atoms: _287  and  _288
REMARK  120  A    between atoms: _297  and  _299
REMARK  121  A    between atoms: _299  and  _300
REMARK  122  A    between atoms: _299  and  _302
REMARK  123  A    between atoms: _302  and  _303
REMARK  124  A    between atoms: _306  and  _308
REMARK  125  A    between atoms: _308  and  _309
REMARK  126  A    between atoms: _308  and  _311
REMARK  127  A    between atoms: _311  and  _312
REMARK  128  A    between atoms: _315  and  _317
REMARK  129  A    between atoms: _317  and  _318
REMARK  130  A    between atoms: _317  and  _320
REMARK  131  A    between atoms: _320  and  _321
REMARK  132  A    between atoms: _324  and  _326
REMARK  133  A    between atoms: _326  and  _327
REMARK  134  A    between atoms: _326  and  _329
REMARK  135  A    between atoms: _329  and  _330
REMARK  136  A    between atoms: _333  and  _335
REMARK  137  A    between atoms: _335  and  _336
REMARK  138  A    between atoms: _338  and  _340
REMARK  139  A    between atoms: _340  and  _341
REMARK  140  A    between atoms: _344  and  _346
REMARK  141  A    between atoms: _346  and  _347
REMARK  142  A    between atoms: _346  and  _349
REMARK  143  A    between atoms: _349  and  _350
REMARK  144  A    between atoms: _353  and  _355
REMARK  145  A    between atoms: _355  and  _356
REMARK  146  A    between atoms: _355  and  _358
REMARK  147  A    between atoms: _358  and  _359
REMARK  148  A    between atoms: _362  and  _364
REMARK  149  A    between atoms: _364  and  _365
REMARK  150  A    between atoms: _364  and  _367
REMARK  151  A    between atoms: _367  and  _368
REMARK  152  A    between atoms: _371  and  _373
REMARK  153  A    between atoms: _373  and  _374
REMARK  154  A    between atoms: _373  and  _376
REMARK  155  A    between atoms: _379  and  _381
REMARK  156  A    between atoms: _381  and  _382
REMARK  157  A    between atoms: _381  and  _384
REMARK  158  A    between atoms: _384  and  _385
REMARK  159  A    between atoms: _388  and  _390
REMARK  160  A    between atoms: _390  and  _391
REMARK  161  A    between atoms: _390  and  _393
REMARK  162  A    between atoms: _393  and  _394
REMARK  163  A    between atoms: _394  and  _395
REMARK  164  A    between atoms: _395  and  _396
REMARK  165  A    between atoms: _396  and  _397
REMARK  166  A    between atoms: _401  and  _403
REMARK  167  A    between atoms: _403  and  _404
REMARK  168  A    between atoms: _403  and  _406
REMARK  169  A    between atoms: _406  and  _407
REMARK  170  A    between atoms: _407  and  _408
REMARK  171  A    between atoms: _410  and  _412
REMARK  172  A    between atoms: _412  and  _413
REMARK  173  A    between atoms: _412  and  _415
REMARK  174  A    between atoms: _415  and  _416
REMARK  175  A    between atoms: _419  and  _421
REMARK  176  A    between atoms: _421  and  _422
REMARK  177  A    between atoms: _424  and  _426
REMARK  178  A    between atoms: _426  and  _427
REMARK  179  A    between atoms: _429  and  _431
REMARK  180  A    between atoms: _431  and  _432
REMARK  181  A    between atoms: _431  and  _434
REMARK  182  A    between atoms: _434  and  _435
REMARK  183  A    between atoms: _438  and  _440
REMARK  184  A    between atoms: _440  and  _441
REMARK  185  A    between atoms: _443  and  _445
REMARK  186  A    between atoms: _445  and  _446
REMARK  187  A    between atoms: _448  and  _450
REMARK  188  A    between atoms: _450  and  _451
REMARK  189  A    between atoms: _450  and  _453
REMARK  190  A    between atoms: _453  and  _454
REMARK  191  A    between atoms: _460  and  _462
REMARK  192  A    between atoms: _462  and  _463
REMARK  193  A    between atoms: _462  and  _465
REMARK  194  A    between atoms: _465  and  _466
REMARK  195  A    between atoms: _469  and  _471
REMARK  196  A    between atoms: _471  and  _472
REMARK  197  A    between atoms: _471  and  _474
REMARK  198  A    between atoms: _477  and  _479
REMARK  199  A    between atoms: _479  and  _480
REMARK  200  A    between atoms: _479  and  _482
REMARK  201  A    between atoms: _482  and  _483
REMARK  202  A    between atoms: _487  and  _488
REMARK  203  A    between atoms: _493  and  _495
REMARK  204  A    between atoms: _495  and  _496
REMARK  205  A    between atoms: _495  and  _498
REMARK  206  A    between atoms: _498  and  _499
REMARK  207  A    between atoms: _503  and  _504
REMARK  208  A    between atoms: _509  and  _511
REMARK  209  A    between atoms: _511  and  _512
REMARK  210  A    between atoms: _511  and  _514
REMARK  211  A    between atoms: _517  and  _519
REMARK  212  A    between atoms: _519  and  _520
REMARK  213  A    between atoms: _519  and  _522
REMARK  214  A    between atoms: _522  and  _523
REMARK  215  A    between atoms: _528  and  _530
REMARK  216  A    between atoms: _530  and  _531
REMARK  217  A    between atoms: _530  and  _533
REMARK  218  A    between atoms: _533  and  _534
REMARK  219  A    between atoms: _537  and  _539
REMARK  220  A    between atoms: _539  and  _540
REMARK  221  A    between atoms: _539  and  _542
REMARK  222  A    between atoms: _542  and  _543
REMARK  223  A    between atoms: _546  and  _548
REMARK  224  A    between atoms: _548  and  _549
REMARK  225  A    between atoms: _551  and  _553
REMARK  226  A    between atoms: _553  and  _554
REMARK  227  A    between atoms: _553  and  _556
REMARK  228  A    between atoms: _556  and  _557
REMARK  229  A    between atoms: _557  and  _558
REMARK  230  A    between atoms: _558  and  _559
REMARK  231  A    between atoms: _568  and  _570
REMARK  232  A    between atoms: _570  and  _571
REMARK  233  A    between atoms: _570  and  _573
REMARK  234  A    between atoms: _573  and  _574
REMARK                            x       y       z     vdW  Elec       q    Type
REMARK                         _______ _______ _______ _____ _____    ______ ____
ROOT
ATOM      1  O   HOH     1       8.206  -7.466 -17.613  0.00  0.00    +0.000 OA
ENDROOT
TORSDOF 0
REMARK  Name = ../refined-set-2016/2o4s/2o4s_pocket.pdb
REMARK  234 active torsions:
REMARK  status: ('A' for Active; 'I' for Inactive)
REMARK    1  A    between atoms: _1  and  _3
REMARK    2  A    between atoms: _3  and  _4
REMARK    3  A    between atoms: _3  and  _6
REMARK    4  A    between atoms: _6  and  _7
REMARK    5  A    between atoms: _7  and  _8
REMARK    6  A    between atoms: _8  and  _9
REMARK    7  A    between atoms: _18  and  _20
REMARK    8  A    between atoms: _20  and  _21
REMARK    9  A    between atoms: _20  and  _23
REMARK   10  A    between atoms: _23  and  _24
REMARK   11  A    between atoms: _27  and  _29
REMARK   12  A    between atoms: _29  and  _30
REMARK   13  A    between atoms: _29  and  _32
REMARK   14  A    between atoms: _32  and  _33
REMARK   15  A    between atoms: _36  and  _38
REMARK   16  A    between atoms: _38  and  _39
REMARK   17  A    between atoms: _38  and  _41
REMARK   18  A    between atoms: _41  and  _42
REMARK   19  A    between atoms: _45  and  _47
REMARK   20  A    between atoms: _47  and  _48
REMARK   21  A    between atoms: _47  and  _50
REMARK   22  A    between atoms: _50  and  _51
REMARK   23  A    between atoms: _54  and  _56
REMARK   24  A    between atoms: _56  and  _57
REMARK   25  A    between atoms: _59  and  _61
REMARK   26  A    between atoms: _61  and  _62
REMARK   27  A    between atoms: _65  and  _67
REMARK   28  A    between atoms: _67  and  _68
REMARK   29  A    between atoms: _67  and  _70
REMARK   30  A    between atoms: _70  and  _71
REMARK   31  A    between atoms: _74  and  _76
REMARK   32  A    between atoms: _76  and  _77
REMARK   33  A    between atoms: _76  and  _79
REMARK   34  A    between atoms: _79  and  _80
REMARK   35  A    between atoms: _83  and  _85
REMARK   36  A    between atoms: _85  and  _86
REMARK   37  A    between atoms: _85  and  _88
REMARK   38  A    between atoms: _88  and  _89
REMARK   39  A    between atoms: _92  and  _94
REMARK   40  A    between atoms: _94  and  _95
REMARK   41  A    between atoms: _94  and  _97
REMARK   42  A    between atoms: _100  and  _102
REMARK   43  A    between atoms: _102  and  _103
REMARK   44  A    between atoms: _102  and  _105
REMARK   45  A    between atoms: _105  and  _106
REMARK   46  A    between atoms: _106  and  _107
REMARK   47  A    between atoms: _107  and  _108
REMARK   48  A    between atoms: _108  and  _109
REMARK   49  A    between atoms: _113  and  _115
REMARK   50  A    between atoms: _115  and  _116
REMARK   51  A    between atoms: _115  and  _118
REMARK   52  A    between atoms: _118  and  _119
REMARK   53  A    between atoms: _119  and  _120
REMARK   54  A    between atoms: _122  and  _124
REMARK   55  A    between atoms: _124  and  _125
REMARK   56  A    between atoms: _124  and  _127
REMARK   57  A    between atoms: _127  and  _128
REMARK   58  A    between atoms: _131  and  _133
REMARK   59  A    between atoms: _133  and  _134
REMARK   60  A    between atoms: _136  and  _138
REMARK   61  A    between atoms: _138  and  _139
REMARK   62  A    between atoms: _141  and  _143
REMARK   63  A    between atoms: _143  and  _144
REMARK   64  A    between atoms: _143  and  _146
REMARK   65  A    between atoms: _146  and  _147
REMARK   66  A    between atoms: _150  and  _152
REMARK   67  A    between atoms: _152  and  _153
REMARK   68  A    between atoms: _155  and  _157
REMARK   69  A    between atoms: _157  and  _158
REMARK   70  A    between atoms: _160  and  _162
REMARK   71  A    between atoms: _162  and  _163
REMARK   72  A    between atoms: _162  and  _165
REMARK   73  A    between atoms: _165  and  _166
REMARK   74  A    between atoms: _172  and  _174
REMARK   75  A    between atoms: _174  and  _175
REMARK   76  A    between atoms: _174  and  _177
REMARK   77  A    between atoms: _177  and  _178
REMARK   78  A    between atoms: _181  and  _183
REMARK   79  A    between atoms: _183  and  _184
REMARK   80  A    between atoms: _183  and  _186
REMARK   81  A    between atoms: _189  and  _191
REMARK   82  A    between atoms: _191  and  _192
REMARK   83  A    between atoms: _191  and  _194
REMARK   84  A    between atoms: _194  and  _195
REMARK   85  A    between atoms: _199  and  _200
REMARK   86  A    between atoms: _205  and  _207
REMARK   87  A    between atoms: _207  and  _208
REMARK   88  A    between atoms: _207  and  _210
REMARK   89  A    between atoms: _210  and  _211
REMARK   90  A    between atoms: _215  and  _216
REMARK   91  A    between atoms: _221  and  _223
REMARK   92  A    between atoms: _223  and  _224
REMARK   93  A    between atoms: _223  and  _226
REMARK   94  A    between atoms: _229  and  _231
REMARK   95  A    between atoms: _231  and  _232
REMARK   96  A    between atoms: _231  and  _234
REMARK   97  A    between atoms: _234  and  _235
REMARK   98  A    between atoms: _240  and  _242
REMARK   99  A    between atoms: _242  and  _243
REMARK  100  A    between atoms: _242  and  _245
REMARK  101  A    between atoms: _245  and  _246
REMARK  102  A    between atoms: _249  and  _251
REMARK  103  A    between atoms: _251  and  _252
REMARK  104  A    between atoms: _251  and  _254
REMARK  105  A    between atoms: _254  and  _255
REMARK  106  A    between atoms: _258  and  _260
REMARK  107  A    between atoms: _260  and  _261
REMARK  108  A    between atoms: _263  and  _265
REMARK  109  A    between atoms: _265  and  _266
REMARK  110  A    between atoms: _265  and  _268
REMARK  111  A    between atoms: _268  and  _269
REMARK  112  A    between atoms: _269  and  _270
REMARK  113  A    between atoms: _270  and  _271
REMARK  114  A    between atoms: _280  and  _282
REMARK  115  A    between atoms: _282  and  _283
REMARK  116  A    between atoms: _282  and  _285
REMARK  117  A    between atoms: _285  and  _286
REMARK  118  A    between atoms: _286  and  _287
REMARK  119  A    between atoms: _287  and  _288
REMARK  120  A    between atoms: _297  and  _299
REMARK  121  A    between atoms: _299  and  _300
REMARK  122  A    between atoms: _299  and  _302
REMARK  123  A    between atoms: _302  and  _303
REMARK  124  A    between atoms: _306  and  _308
REMARK  125  A    between atoms: _308  and  _309
REMARK  126  A    between atoms: _308  and  _311
REMARK  127  A    between atoms: _311  and  _312
REMARK  128  A    between atoms: _315  and  _317
REMARK  129  A    between atoms: _317  and  _318
REMARK  130  A    between atoms: _317  and  _320
REMARK  131  A    between atoms: _320  and  _321
REMARK  132  A    between atoms: _324  and  _326
REMARK  133  A    between atoms: _326  and  _327
REMARK  134  A    between atoms: _326  and  _329
REMARK  135  A    between atoms: _329  and  _330
REMARK  136  A    between atoms: _333  and  _335
REMARK  137  A    between atoms: _335  and  _336
REMARK  138  A    between atoms: _338  and  _340
REMARK  139  A    between atoms: _340  and  _341
REMARK  140  A    between atoms: _344  and  _346
REMARK  141  A    between atoms: _346  and  _347
REMARK  142  A    between atoms: _346  and  _349
REMARK  143  A    between atoms: _349  and  _350
REMARK  144  A    between atoms: _353  and  _355
REMARK  145  A    between atoms: _355  and  _356
REMARK  146  A    between atoms: _355  and  _358
REMARK  147  A    between atoms: _358  and  _359
REMARK  148  A    between atoms: _362  and  _364
REMARK  149  A    between atoms: _364  and  _365
REMARK  150  A    between atoms: _364  and  _367
REMARK  151  A    between atoms: _367  and  _368
REMARK  152  A    between atoms: _371  and  _373
REMARK  153  A    between atoms: _373  and  _374
REMARK  154  A    between atoms: _373  and  _376
REMARK  155  A    between atoms: _379  and  _381
REMARK  156  A    between atoms: _381  and  _382
REMARK  157  A    between atoms: _381  and  _384
REMARK  158  A    between atoms: _384  and  _385
REMARK  159  A    between atoms: _388  and  _390
REMARK  160  A    between atoms: _390  and  _391
REMARK  161  A    between atoms: _390  and  _393
REMARK  162  A    between atoms: _393  and  _394
REMARK  163  A    between atoms: _394  and  _395
REMARK  164  A    between atoms: _395  and  _396
REMARK  165  A    between atoms: _396  and  _397
REMARK  166  A    between atoms: _401  and  _403
REMARK  167  A    between atoms: _403  and  _404
REMARK  168  A    between atoms: _403  and  _406
REMARK  169  A    between atoms: _406  and  _407
REMARK  170  A    between atoms: _407  and  _408
REMARK  171  A    between atoms: _410  and  _412
REMARK  172  A    between atoms: _412  and  _413
REMARK  173  A    between atoms: _412  and  _415
REMARK  174  A    between atoms: _415  and  _416
REMARK  175  A    between atoms: _419  and  _421
REMARK  176  A    between atoms: _421  and  _422
REMARK  177  A    between atoms: _424  and  _426
REMARK  178  A    between atoms: _426  and  _427
REMARK  179  A    between atoms: _429  and  _431
REMARK  180  A    between atoms: _431  and  _432
REMARK  181  A    between atoms: _431  and  _434
REMARK  182  A    between atoms: _434  and  _435
REMARK  183  A    between atoms: _438  and  _440
REMARK  184  A    between atoms: _440  and  _441
REMARK  185  A    between atoms: _443  and  _445
REMARK  186  A    between atoms: _445  and  _446
REMARK  187  A    between atoms: _448  and  _450
REMARK  188  A    between atoms: _450  and  _451
REMARK  189  A    between atoms: _450  and  _453
REMARK  190  A    between atoms: _453  and  _454
REMARK  191  A    between atoms: _460  and  _462
REMARK  192  A    between atoms: _462  and  _463
REMARK  193  A    between atoms: _462  and  _465
REMARK  194  A    between atoms: _465  and  _466
REMARK  195  A    between atoms: _469  and  _471
REMARK  196  A    between atoms: _471  and  _472
REMARK  197  A    between atoms: _471  and  _474
REMARK  198  A    between atoms: _477  and  _479
REMARK  199  A    between atoms: _479  and  _480
REMARK  200  A    between atoms: _479  and  _482
REMARK  201  A    between atoms: _482  and  _483
REMARK  202  A    between atoms: _487  and  _488
REMARK  203  A    between atoms: _493  and  _495
REMARK  204  A    between atoms: _495  and  _496
REMARK  205  A    between atoms: _495  and  _498
REMARK  206  A    between atoms: _498  and  _499
REMARK  207  A    between atoms: _503  and  _504
REMARK  208  A    between atoms: _509  and  _511
REMARK  209  A    between atoms: _511  and  _512
REMARK  210  A    between atoms: _511  and  _514
REMARK  211  A    between atoms: _517  and  _519
REMARK  212  A    between atoms: _519  and  _520
REMARK  213  A    between atoms: _519  and  _522
REMARK  214  A    between atoms: _522  and  _523
REMARK  215  A    between atoms: _528  and  _530
REMARK  216  A    between atoms: _530  and  _531
REMARK  217  A    between atoms: _530  and  _533
REMARK  218  A    between atoms: _533  and  _534
REMARK  219  A    between atoms: _537  and  _539
REMARK  220  A    between atoms: _539  and  _540
REMARK  221  A    between atoms: _539  and  _542
REMARK  222  A    between atoms: _542  and  _543
REMARK  223  A    between atoms: _546  and  _548
REMARK  224  A    between atoms: _548  and  _549
REMARK  225  A    between atoms: _551  and  _553
REMARK  226  A    between atoms: _553  and  _554
REMARK  227  A    between atoms: _553  and  _556
REMARK  228  A    between atoms: _556  and  _557
REMARK  229  A    between atoms: _557  and  _558
REMARK  230  A    between atoms: _558  and  _559
REMARK  231  A    between atoms: _568  and  _570
REMARK  232  A    between atoms: _570  and  _571
REMARK  233  A    between atoms: _570  and  _573
REMARK  234  A    between atoms: _573  and  _574
REMARK                            x       y       z     vdW  Elec       q    Type
REMARK                         _______ _______ _______ _____ _____    ______ ____
ROOT
ATOM      1  O   HOH     1       4.121 -12.536 -17.434  0.00  0.00    +0.000 OA
ENDROOT
TORSDOF 0
REMARK  Name = ../refined-set-2016/2o4s/2o4s_pocket.pdb
REMARK  234 active torsions:
REMARK  status: ('A' for Active; 'I' for Inactive)
REMARK    1  A    between atoms: _1  and  _3
REMARK    2  A    between atoms: _3  and  _4
REMARK    3  A    between atoms: _3  and  _6
REMARK    4  A    between atoms: _6  and  _7
REMARK    5  A    between atoms: _7  and  _8
REMARK    6  A    between atoms: _8  and  _9
REMARK    7  A    between atoms: _18  and  _20
REMARK    8  A    between atoms: _20  and  _21
REMARK    9  A    between atoms: _20  and  _23
REMARK   10  A    between atoms: _23  and  _24
REMARK   11  A    between atoms: _27  and  _29
REMARK   12  A    between atoms: _29  and  _30
REMARK   13  A    between atoms: _29  and  _32
REMARK   14  A    between atoms: _32  and  _33
REMARK   15  A    between atoms: _36  and  _38
REMARK   16  A    between atoms: _38  and  _39
REMARK   17  A    between atoms: _38  and  _41
REMARK   18  A    between atoms: _41  and  _42
REMARK   19  A    between atoms: _45  and  _47
REMARK   20  A    between atoms: _47  and  _48
REMARK   21  A    between atoms: _47  and  _50
REMARK   22  A    between atoms: _50  and  _51
REMARK   23  A    between atoms: _54  and  _56
REMARK   24  A    between atoms: _56  and  _57
REMARK   25  A    between atoms: _59  and  _61
REMARK   26  A    between atoms: _61  and  _62
REMARK   27  A    between atoms: _65  and  _67
REMARK   28  A    between atoms: _67  and  _68
REMARK   29  A    between atoms: _67  and  _70
REMARK   30  A    between atoms: _70  and  _71
REMARK   31  A    between atoms: _74  and  _76
REMARK   32  A    between atoms: _76  and  _77
REMARK   33  A    between atoms: _76  and  _79
REMARK   34  A    between atoms: _79  and  _80
REMARK   35  A    between atoms: _83  and  _85
REMARK   36  A    between atoms: _85  and  _86
REMARK   37  A    between atoms: _85  and  _88
REMARK   38  A    between atoms: _88  and  _89
REMARK   39  A    between atoms: _92  and  _94
REMARK   40  A    between atoms: _94  and  _95
REMARK   41  A    between atoms: _94  and  _97
REMARK   42  A    between atoms: _100  and  _102
REMARK   43  A    between atoms: _102  and  _103
REMARK   44  A    between atoms: _102  and  _105
REMARK   45  A    between atoms: _105  and  _106
REMARK   46  A    between atoms: _106  and  _107
REMARK   47  A    between atoms: _107  and  _108
REMARK   48  A    between atoms: _108  and  _109
REMARK   49  A    between atoms: _113  and  _115
REMARK   50  A    between atoms: _115  and  _116
REMARK   51  A    between atoms: _115  and  _118
REMARK   52  A    between atoms: _118  and  _119
REMARK   53  A    between atoms: _119  and  _120
REMARK   54  A    between atoms: _122  and  _124
REMARK   55  A    between atoms: _124  and  _125
REMARK   56  A    between atoms: _124  and  _127
REMARK   57  A    between atoms: _127  and  _128
REMARK   58  A    between atoms: _131  and  _133
REMARK   59  A    between atoms: _133  and  _134
REMARK   60  A    between atoms: _136  and  _138
REMARK   61  A    between atoms: _138  and  _139
REMARK   62  A    between atoms: _141  and  _143
REMARK   63  A    between atoms: _143  and  _144
REMARK   64  A    between atoms: _143  and  _146
REMARK   65  A    between atoms: _146  and  _147
REMARK   66  A    between atoms: _150  and  _152
REMARK   67  A    between atoms: _152  and  _153
REMARK   68  A    between atoms: _155  and  _157
REMARK   69  A    between atoms: _157  and  _158
REMARK   70  A    between atoms: _160  and  _162
REMARK   71  A    between atoms: _162  and  _163
REMARK   72  A    between atoms: _162  and  _165
REMARK   73  A    between atoms: _165  and  _166
REMARK   74  A    between atoms: _172  and  _174
REMARK   75  A    between atoms: _174  and  _175
REMARK   76  A    between atoms: _174  and  _177
REMARK   77  A    between atoms: _177  and  _178
REMARK   78  A    between atoms: _181  and  _183
REMARK   79  A    between atoms: _183  and  _184
REMARK   80  A    between atoms: _183  and  _186
REMARK   81  A    between atoms: _189  and  _191
REMARK   82  A    between atoms: _191  and  _192
REMARK   83  A    between atoms: _191  and  _194
REMARK   84  A    between atoms: _194  and  _195
REMARK   85  A    between atoms: _199  and  _200
REMARK   86  A    between atoms: _205  and  _207
REMARK   87  A    between atoms: _207  and  _208
REMARK   88  A    between atoms: _207  and  _210
REMARK   89  A    between atoms: _210  and  _211
REMARK   90  A    between atoms: _215  and  _216
REMARK   91  A    between atoms: _221  and  _223
REMARK   92  A    between atoms: _223  and  _224
REMARK   93  A    between atoms: _223  and  _226
REMARK   94  A    between atoms: _229  and  _231
REMARK   95  A    between atoms: _231  and  _232
REMARK   96  A    between atoms: _231  and  _234
REMARK   97  A    between atoms: _234  and  _235
REMARK   98  A    between atoms: _240  and  _242
REMARK   99  A    between atoms: _242  and  _243
REMARK  100  A    between atoms: _242  and  _245
REMARK  101  A    between atoms: _245  and  _246
REMARK  102  A    between atoms: _249  and  _251
REMARK  103  A    between atoms: _251  and  _252
REMARK  104  A    between atoms: _251  and  _254
REMARK  105  A    between atoms: _254  and  _255
REMARK  106  A    between atoms: _258  and  _260
REMARK  107  A    between atoms: _260  and  _261
REMARK  108  A    between atoms: _263  and  _265
REMARK  109  A    between atoms: _265  and  _266
REMARK  110  A    between atoms: _265  and  _268
REMARK  111  A    between atoms: _268  and  _269
REMARK  112  A    between atoms: _269  and  _270
REMARK  113  A    between atoms: _270  and  _271
REMARK  114  A    between atoms: _280  and  _282
REMARK  115  A    between atoms: _282  and  _283
REMARK  116  A    between atoms: _282  and  _285
REMARK  117  A    between atoms: _285  and  _286
REMARK  118  A    between atoms: _286  and  _287
REMARK  119  A    between atoms: _287  and  _288
REMARK  120  A    between atoms: _297  and  _299
REMARK  121  A    between atoms: _299  and  _300
REMARK  122  A    between atoms: _299  and  _302
REMARK  123  A    between atoms: _302  and  _303
REMARK  124  A    between atoms: _306  and  _308
REMARK  125  A    between atoms: _308  and  _309
REMARK  126  A    between atoms: _308  and  _311
REMARK  127  A    between atoms: _311  and  _312
REMARK  128  A    between atoms: _315  and  _317
REMARK  129  A    between atoms: _317  and  _318
REMARK  130  A    between atoms: _317  and  _320
REMARK  131  A    between atoms: _320  and  _321
REMARK  132  A    between atoms: _324  and  _326
REMARK  133  A    between atoms: _326  and  _327
REMARK  134  A    between atoms: _326  and  _329
REMARK  135  A    between atoms: _329  and  _330
REMARK  136  A    between atoms: _333  and  _335
REMARK  137  A    between atoms: _335  and  _336
REMARK  138  A    between atoms: _338  and  _340
REMARK  139  A    between atoms: _340  and  _341
REMARK  140  A    between atoms: _344  and  _346
REMARK  141  A    between atoms: _346  and  _347
REMARK  142  A    between atoms: _346  and  _349
REMARK  143  A    between atoms: _349  and  _350
REMARK  144  A    between atoms: _353  and  _355
REMARK  145  A    between atoms: _355  and  _356
REMARK  146  A    between atoms: _355  and  _358
REMARK  147  A    between atoms: _358  and  _359
REMARK  148  A    between atoms: _362  and  _364
REMARK  149  A    between atoms: _364  and  _365
REMARK  150  A    between atoms: _364  and  _367
REMARK  151  A    between atoms: _367  and  _368
REMARK  152  A    between atoms: _371  and  _373
REMARK  153  A    between atoms: _373  and  _374
REMARK  154  A    between atoms: _373  and  _376
REMARK  155  A    between atoms: _379  and  _381
REMARK  156  A    between atoms: _381  and  _382
REMARK  157  A    between atoms: _381  and  _384
REMARK  158  A    between atoms: _384  and  _385
REMARK  159  A    between atoms: _388  and  _390
REMARK  160  A    between atoms: _390  and  _391
REMARK  161  A    between atoms: _390  and  _393
REMARK  162  A    between atoms: _393  and  _394
REMARK  163  A    between atoms: _394  and  _395
REMARK  164  A    between atoms: _395  and  _396
REMARK  165  A    between atoms: _396  and  _397
REMARK  166  A    between atoms: _401  and  _403
REMARK  167  A    between atoms: _403  and  _404
REMARK  168  A    between atoms: _403  and  _406
REMARK  169  A    between atoms: _406  and  _407
REMARK  170  A    between atoms: _407  and  _408
REMARK  171  A    between atoms: _410  and  _412
REMARK  172  A    between atoms: _412  and  _413
REMARK  173  A    between atoms: _412  and  _415
REMARK  174  A    between atoms: _415  and  _416
REMARK  175  A    between atoms: _419  and  _421
REMARK  176  A    between atoms: _421  and  _422
REMARK  177  A    between atoms: _424  and  _426
REMARK  178  A    between atoms: _426  and  _427
REMARK  179  A    between atoms: _429  and  _431
REMARK  180  A    between atoms: _431  and  _432
REMARK  181  A    between atoms: _431  and  _434
REMARK  182  A    between atoms: _434  and  _435
REMARK  183  A    between atoms: _438  and  _440
REMARK  184  A    between atoms: _440  and  _441
REMARK  185  A    between atoms: _443  and  _445
REMARK  186  A    between atoms: _445  and  _446
REMARK  187  A    between atoms: _448  and  _450
REMARK  188  A    between atoms: _450  and  _451
REMARK  189  A    between atoms: _450  and  _453
REMARK  190  A    between atoms: _453  and  _454
REMARK  191  A    between atoms: _460  and  _462
REMARK  192  A    between atoms: _462  and  _463
REMARK  193  A    between atoms: _462  and  _465
REMARK  194  A    between atoms: _465  and  _466
REMARK  195  A    between atoms: _469  and  _471
REMARK  196  A    between atoms: _471  and  _472
REMARK  197  A    between atoms: _471  and  _474
REMARK  198  A    between atoms: _477  and  _479
REMARK  199  A    between atoms: _479  and  _480
REMARK  200  A    between atoms: _479  and  _482
REMARK  201  A    between atoms: _482  and  _483
REMARK  202  A    between atoms: _487  and  _488
REMARK  203  A    between atoms: _493  and  _495
REMARK  204  A    between atoms: _495  and  _496
REMARK  205  A    between atoms: _495  and  _498
REMARK  206  A    between atoms: _498  and  _499
REMARK  207  A    between atoms: _503  and  _504
REMARK  208  A    between atoms: _509  and  _511
REMARK  209  A    between atoms: _511  and  _512
REMARK  210  A    between atoms: _511  and  _514
REMARK  211  A    between atoms: _517  and  _519
REMARK  212  A    between atoms: _519  and  _520
REMARK  213  A    between atoms: _519  and  _522
REMARK  214  A    between atoms: _522  and  _523
REMARK  215  A    between atoms: _528  and  _530
REMARK  216  A    between atoms: _530  and  _531
REMARK  217  A    between atoms: _530  and  _533
REMARK  218  A    between atoms: _533  and  _534
REMARK  219  A    between atoms: _537  and  _539
REMARK  220  A    between atoms: _539  and  _540
REMARK  221  A    between atoms: _539  and  _542
REMARK  222  A    between atoms: _542  and  _543
REMARK  223  A    between atoms: _546  and  _548
REMARK  224  A    between atoms: _548  and  _549
REMARK  225  A    between atoms: _551  and  _553
REMARK  226  A    between atoms: _553  and  _554
REMARK  227  A    between atoms: _553  and  _556
REMARK  228  A    between atoms: _556  and  _557
REMARK  229  A    between atoms: _557  and  _558
REMARK  230  A    between atoms: _558  and  _559
REMARK  231  A    between atoms: _568  and  _570
REMARK  232  A    between atoms: _570  and  _571
REMARK  233  A    between atoms: _570  and  _573
REMARK  234  A    between atoms: _573  and  _574
REMARK                            x       y       z     vdW  Elec       q    Type
REMARK                         _______ _______ _______ _____ _____    ______ ____
ROOT
ATOM      1  O   HOH     1      19.745 -24.322 -13.543  0.00  0.00    +0.000 OA
ENDROOT
TORSDOF 0
REMARK  Name = ../refined-set-2016/2o4s/2o4s_pocket.pdb
REMARK  234 active torsions:
REMARK  status: ('A' for Active; 'I' for Inactive)
REMARK    1  A    between atoms: _1  and  _3
REMARK    2  A    between atoms: _3  and  _4
REMARK    3  A    between atoms: _3  and  _6
REMARK    4  A    between atoms: _6  and  _7
REMARK    5  A    between atoms: _7  and  _8
REMARK    6  A    between atoms: _8  and  _9
REMARK    7  A    between atoms: _18  and  _20
REMARK    8  A    between atoms: _20  and  _21
REMARK    9  A    between atoms: _20  and  _23
REMARK   10  A    between atoms: _23  and  _24
REMARK   11  A    between atoms: _27  and  _29
REMARK   12  A    between atoms: _29  and  _30
REMARK   13  A    between atoms: _29  and  _32
REMARK   14  A    between atoms: _32  and  _33
REMARK   15  A    between atoms: _36  and  _38
REMARK   16  A    between atoms: _38  and  _39
REMARK   17  A    between atoms: _38  and  _41
REMARK   18  A    between atoms: _41  and  _42
REMARK   19  A    between atoms: _45  and  _47
REMARK   20  A    between atoms: _47  and  _48
REMARK   21  A    between atoms: _47  and  _50
REMARK   22  A    between atoms: _50  and  _51
REMARK   23  A    between atoms: _54  and  _56
REMARK   24  A    between atoms: _56  and  _57
REMARK   25  A    between atoms: _59  and  _61
REMARK   26  A    between atoms: _61  and  _62
REMARK   27  A    between atoms: _65  and  _67
REMARK   28  A    between atoms: _67  and  _68
REMARK   29  A    between atoms: _67  and  _70
REMARK   30  A    between atoms: _70  and  _71
REMARK   31  A    between atoms: _74  and  _76
REMARK   32  A    between atoms: _76  and  _77
REMARK   33  A    between atoms: _76  and  _79
REMARK   34  A    between atoms: _79  and  _80
REMARK   35  A    between atoms: _83  and  _85
REMARK   36  A    between atoms: _85  and  _86
REMARK   37  A    between atoms: _85  and  _88
REMARK   38  A    between atoms: _88  and  _89
REMARK   39  A    between atoms: _92  and  _94
REMARK   40  A    between atoms: _94  and  _95
REMARK   41  A    between atoms: _94  and  _97
REMARK   42  A    between atoms: _100  and  _102
REMARK   43  A    between atoms: _102  and  _103
REMARK   44  A    between atoms: _102  and  _105
REMARK   45  A    between atoms: _105  and  _106
REMARK   46  A    between atoms: _106  and  _107
REMARK   47  A    between atoms: _107  and  _108
REMARK   48  A    between atoms: _108  and  _109
REMARK   49  A    between atoms: _113  and  _115
REMARK   50  A    between atoms: _115  and  _116
REMARK   51  A    between atoms: _115  and  _118
REMARK   52  A    between atoms: _118  and  _119
REMARK   53  A    between atoms: _119  and  _120
REMARK   54  A    between atoms: _122  and  _124
REMARK   55  A    between atoms: _124  and  _125
REMARK   56  A    between atoms: _124  and  _127
REMARK   57  A    between atoms: _127  and  _128
REMARK   58  A    between atoms: _131  and  _133
REMARK   59  A    between atoms: _133  and  _134
REMARK   60  A    between atoms: _136  and  _138
REMARK   61  A    between atoms: _138  and  _139
REMARK   62  A    between atoms: _141  and  _143
REMARK   63  A    between atoms: _143  and  _144
REMARK   64  A    between atoms: _143  and  _146
REMARK   65  A    between atoms: _146  and  _147
REMARK   66  A    between atoms: _150  and  _152
REMARK   67  A    between atoms: _152  and  _153
REMARK   68  A    between atoms: _155  and  _157
REMARK   69  A    between atoms: _157  and  _158
REMARK   70  A    between atoms: _160  and  _162
REMARK   71  A    between atoms: _162  and  _163
REMARK   72  A    between atoms: _162  and  _165
REMARK   73  A    between atoms: _165  and  _166
REMARK   74  A    between atoms: _172  and  _174
REMARK   75  A    between atoms: _174  and  _175
REMARK   76  A    between atoms: _174  and  _177
REMARK   77  A    between atoms: _177  and  _178
REMARK   78  A    between atoms: _181  and  _183
REMARK   79  A    between atoms: _183  and  _184
REMARK   80  A    between atoms: _183  and  _186
REMARK   81  A    between atoms: _189  and  _191
REMARK   82  A    between atoms: _191  and  _192
REMARK   83  A    between atoms: _191  and  _194
REMARK   84  A    between atoms: _194  and  _195
REMARK   85  A    between atoms: _199  and  _200
REMARK   86  A    between atoms: _205  and  _207
REMARK   87  A    between atoms: _207  and  _208
REMARK   88  A    between atoms: _207  and  _210
REMARK   89  A    between atoms: _210  and  _211
REMARK   90  A    between atoms: _215  and  _216
REMARK   91  A    between atoms: _221  and  _223
REMARK   92  A    between atoms: _223  and  _224
REMARK   93  A    between atoms: _223  and  _226
REMARK   94  A    between atoms: _229  and  _231
REMARK   95  A    between atoms: _231  and  _232
REMARK   96  A    between atoms: _231  and  _234
REMARK   97  A    between atoms: _234  and  _235
REMARK   98  A    between atoms: _240  and  _242
REMARK   99  A    between atoms: _242  and  _243
REMARK  100  A    between atoms: _242  and  _245
REMARK  101  A    between atoms: _245  and  _246
REMARK  102  A    between atoms: _249  and  _251
REMARK  103  A    between atoms: _251  and  _252
REMARK  104  A    between atoms: _251  and  _254
REMARK  105  A    between atoms: _254  and  _255
REMARK  106  A    between atoms: _258  and  _260
REMARK  107  A    between atoms: _260  and  _261
REMARK  108  A    between atoms: _263  and  _265
REMARK  109  A    between atoms: _265  and  _266
REMARK  110  A    between atoms: _265  and  _268
REMARK  111  A    between atoms: _268  and  _269
REMARK  112  A    between atoms: _269  and  _270
REMARK  113  A    between atoms: _270  and  _271
REMARK  114  A    between atoms: _280  and  _282
REMARK  115  A    between atoms: _282  and  _283
REMARK  116  A    between atoms: _282  and  _285
REMARK  117  A    between atoms: _285  and  _286
REMARK  118  A    between atoms: _286  and  _287
REMARK  119  A    between atoms: _287  and  _288
REMARK  120  A    between atoms: _297  and  _299
REMARK  121  A    between atoms: _299  and  _300
REMARK  122  A    between atoms: _299  and  _302
REMARK  123  A    between atoms: _302  and  _303
REMARK  124  A    between atoms: _306  and  _308
REMARK  125  A    between atoms: _308  and  _309
REMARK  126  A    between atoms: _308  and  _311
REMARK  127  A    between atoms: _311  and  _312
REMARK  128  A    between atoms: _315  and  _317
REMARK  129  A    between atoms: _317  and  _318
REMARK  130  A    between atoms: _317  and  _320
REMARK  131  A    between atoms: _320  and  _321
REMARK  132  A    between atoms: _324  and  _326
REMARK  133  A    between atoms: _326  and  _327
REMARK  134  A    between atoms: _326  and  _329
REMARK  135  A    between atoms: _329  and  _330
REMARK  136  A    between atoms: _333  and  _335
REMARK  137  A    between atoms: _335  and  _336
REMARK  138  A    between atoms: _338  and  _340
REMARK  139  A    between atoms: _340  and  _341
REMARK  140  A    between atoms: _344  and  _346
REMARK  141  A    between atoms: _346  and  _347
REMARK  142  A    between atoms: _346  and  _349
REMARK  143  A    between atoms: _349  and  _350
REMARK  144  A    between atoms: _353  and  _355
REMARK  145  A    between atoms: _355  and  _356
REMARK  146  A    between atoms: _355  and  _358
REMARK  147  A    between atoms: _358  and  _359
REMARK  148  A    between atoms: _362  and  _364
REMARK  149  A    between atoms: _364  and  _365
REMARK  150  A    between atoms: _364  and  _367
REMARK  151  A    between atoms: _367  and  _368
REMARK  152  A    between atoms: _371  and  _373
REMARK  153  A    between atoms: _373  and  _374
REMARK  154  A    between atoms: _373  and  _376
REMARK  155  A    between atoms: _379  and  _381
REMARK  156  A    between atoms: _381  and  _382
REMARK  157  A    between atoms: _381  and  _384
REMARK  158  A    between atoms: _384  and  _385
REMARK  159  A    between atoms: _388  and  _390
REMARK  160  A    between atoms: _390  and  _391
REMARK  161  A    between atoms: _390  and  _393
REMARK  162  A    between atoms: _393  and  _394
REMARK  163  A    between atoms: _394  and  _395
REMARK  164  A    between atoms: _395  and  _396
REMARK  165  A    between atoms: _396  and  _397
REMARK  166  A    between atoms: _401  and  _403
REMARK  167  A    between atoms: _403  and  _404
REMARK  168  A    between atoms: _403  and  _406
REMARK  169  A    between atoms: _406  and  _407
REMARK  170  A    between atoms: _407  and  _408
REMARK  171  A    between atoms: _410  and  _412
REMARK  172  A    between atoms: _412  and  _413
REMARK  173  A    between atoms: _412  and  _415
REMARK  174  A    between atoms: _415  and  _416
REMARK  175  A    between atoms: _419  and  _421
REMARK  176  A    between atoms: _421  and  _422
REMARK  177  A    between atoms: _424  and  _426
REMARK  178  A    between atoms: _426  and  _427
REMARK  179  A    between atoms: _429  and  _431
REMARK  180  A    between atoms: _431  and  _432
REMARK  181  A    between atoms: _431  and  _434
REMARK  182  A    between atoms: _434  and  _435
REMARK  183  A    between atoms: _438  and  _440
REMARK  184  A    between atoms: _440  and  _441
REMARK  185  A    between atoms: _443  and  _445
REMARK  186  A    between atoms: _445  and  _446
REMARK  187  A    between atoms: _448  and  _450
REMARK  188  A    between atoms: _450  and  _451
REMARK  189  A    between atoms: _450  and  _453
REMARK  190  A    between atoms: _453  and  _454
REMARK  191  A    between atoms: _460  and  _462
REMARK  192  A    between atoms: _462  and  _463
REMARK  193  A    between atoms: _462  and  _465
REMARK  194  A    between atoms: _465  and  _466
REMARK  195  A    between atoms: _469  and  _471
REMARK  196  A    between atoms: _471  and  _472
REMARK  197  A    between atoms: _471  and  _474
REMARK  198  A    between atoms: _477  and  _479
REMARK  199  A    between atoms: _479  and  _480
REMARK  200  A    between atoms: _479  and  _482
REMARK  201  A    between atoms: _482  and  _483
REMARK  202  A    between atoms: _487  and  _488
REMARK  203  A    between atoms: _493  and  _495
REMARK  204  A    between atoms: _495  and  _496
REMARK  205  A    between atoms: _495  and  _498
REMARK  206  A    between atoms: _498  and  _499
REMARK  207  A    between atoms: _503  and  _504
REMARK  208  A    between atoms: _509  and  _511
REMARK  209  A    between atoms: _511  and  _512
REMARK  210  A    between atoms: _511  and  _514
REMARK  211  A    between atoms: _517  and  _519
REMARK  212  A    between atoms: _519  and  _520
REMARK  213  A    between atoms: _519  and  _522
REMARK  214  A    between atoms: _522  and  _523
REMARK  215  A    between atoms: _528  and  _530
REMARK  216  A    between atoms: _530  and  _531
REMARK  217  A    between atoms: _530  and  _533
REMARK  218  A    between atoms: _533  and  _534
REMARK  219  A    between atoms: _537  and  _539
REMARK  220  A    between atoms: _539  and  _540
REMARK  221  A    between atoms: _539  and  _542
REMARK  222  A    between atoms: _542  and  _543
REMARK  223  A    between atoms: _546  and  _548
REMARK  224  A    between atoms: _548  and  _549
REMARK  225  A    between atoms: _551  and  _553
REMARK  226  A    between atoms: _553  and  _554
REMARK  227  A    between atoms: _553  and  _556
REMARK  228  A    between atoms: _556  and  _557
REMARK  229  A    between atoms: _557  and  _558
REMARK  230  A    between atoms: _558  and  _559
REMARK  231  A    between atoms: _568  and  _570
REMARK  232  A    between atoms: _570  and  _571
REMARK  233  A    between atoms: _570  and  _573
REMARK  234  A    between atoms: _573  and  _574
REMARK                            x       y       z     vdW  Elec       q    Type
REMARK                         _______ _______ _______ _____ _____    ______ ____
ROOT
ATOM      1  O   HOH     1       4.029 -13.496 -15.139  0.00  0.00    +0.000 OA
ENDROOT
TORSDOF 0
REMARK  Name = ../refined-set-2016/2o4s/2o4s_pocket.pdb
REMARK  234 active torsions:
REMARK  status: ('A' for Active; 'I' for Inactive)
REMARK    1  A    between atoms: _1  and  _3
REMARK    2  A    between atoms: _3  and  _4
REMARK    3  A    between atoms: _3  and  _6
REMARK    4  A    between atoms: _6  and  _7
REMARK    5  A    between atoms: _7  and  _8
REMARK    6  A    between atoms: _8  and  _9
REMARK    7  A    between atoms: _18  and  _20
REMARK    8  A    between atoms: _20  and  _21
REMARK    9  A    between atoms: _20  and  _23
REMARK   10  A    between atoms: _23  and  _24
REMARK   11  A    between atoms: _27  and  _29
REMARK   12  A    between atoms: _29  and  _30
REMARK   13  A    between atoms: _29  and  _32
REMARK   14  A    between atoms: _32  and  _33
REMARK   15  A    between atoms: _36  and  _38
REMARK   16  A    between atoms: _38  and  _39
REMARK   17  A    between atoms: _38  and  _41
REMARK   18  A    between atoms: _41  and  _42
REMARK   19  A    between atoms: _45  and  _47
REMARK   20  A    between atoms: _47  and  _48
REMARK   21  A    between atoms: _47  and  _50
REMARK   22  A    between atoms: _50  and  _51
REMARK   23  A    between atoms: _54  and  _56
REMARK   24  A    between atoms: _56  and  _57
REMARK   25  A    between atoms: _59  and  _61
REMARK   26  A    between atoms: _61  and  _62
REMARK   27  A    between atoms: _65  and  _67
REMARK   28  A    between atoms: _67  and  _68
REMARK   29  A    between atoms: _67  and  _70
REMARK   30  A    between atoms: _70  and  _71
REMARK   31  A    between atoms: _74  and  _76
REMARK   32  A    between atoms: _76  and  _77
REMARK   33  A    between atoms: _76  and  _79
REMARK   34  A    between atoms: _79  and  _80
REMARK   35  A    between atoms: _83  and  _85
REMARK   36  A    between atoms: _85  and  _86
REMARK   37  A    between atoms: _85  and  _88
REMARK   38  A    between atoms: _88  and  _89
REMARK   39  A    between atoms: _92  and  _94
REMARK   40  A    between atoms: _94  and  _95
REMARK   41  A    between atoms: _94  and  _97
REMARK   42  A    between atoms: _100  and  _102
REMARK   43  A    between atoms: _102  and  _103
REMARK   44  A    between atoms: _102  and  _105
REMARK   45  A    between atoms: _105  and  _106
REMARK   46  A    between atoms: _106  and  _107
REMARK   47  A    between atoms: _107  and  _108
REMARK   48  A    between atoms: _108  and  _109
REMARK   49  A    between atoms: _113  and  _115
REMARK   50  A    between atoms: _115  and  _116
REMARK   51  A    between atoms: _115  and  _118
REMARK   52  A    between atoms: _118  and  _119
REMARK   53  A    between atoms: _119  and  _120
REMARK   54  A    between atoms: _122  and  _124
REMARK   55  A    between atoms: _124  and  _125
REMARK   56  A    between atoms: _124  and  _127
REMARK   57  A    between atoms: _127  and  _128
REMARK   58  A    between atoms: _131  and  _133
REMARK   59  A    between atoms: _133  and  _134
REMARK   60  A    between atoms: _136  and  _138
REMARK   61  A    between atoms: _138  and  _139
REMARK   62  A    between atoms: _141  and  _143
REMARK   63  A    between atoms: _143  and  _144
REMARK   64  A    between atoms: _143  and  _146
REMARK   65  A    between atoms: _146  and  _147
REMARK   66  A    between atoms: _150  and  _152
REMARK   67  A    between atoms: _152  and  _153
REMARK   68  A    between atoms: _155  and  _157
REMARK   69  A    between atoms: _157  and  _158
REMARK   70  A    between atoms: _160  and  _162
REMARK   71  A    between atoms: _162  and  _163
REMARK   72  A    between atoms: _162  and  _165
REMARK   73  A    between atoms: _165  and  _166
REMARK   74  A    between atoms: _172  and  _174
REMARK   75  A    between atoms: _174  and  _175
REMARK   76  A    between atoms: _174  and  _177
REMARK   77  A    between atoms: _177  and  _178
REMARK   78  A    between atoms: _181  and  _183
REMARK   79  A    between atoms: _183  and  _184
REMARK   80  A    between atoms: _183  and  _186
REMARK   81  A    between atoms: _189  and  _191
REMARK   82  A    between atoms: _191  and  _192
REMARK   83  A    between atoms: _191  and  _194
REMARK   84  A    between atoms: _194  and  _195
REMARK   85  A    between atoms: _199  and  _200
REMARK   86  A    between atoms: _205  and  _207
REMARK   87  A    between atoms: _207  and  _208
REMARK   88  A    between atoms: _207  and  _210
REMARK   89  A    between atoms: _210  and  _211
REMARK   90  A    between atoms: _215  and  _216
REMARK   91  A    between atoms: _221  and  _223
REMARK   92  A    between atoms: _223  and  _224
REMARK   93  A    between atoms: _223  and  _226
REMARK   94  A    between atoms: _229  and  _231
REMARK   95  A    between atoms: _231  and  _232
REMARK   96  A    between atoms: _231  and  _234
REMARK   97  A    between atoms: _234  and  _235
REMARK   98  A    between atoms: _240  and  _242
REMARK   99  A    between atoms: _242  and  _243
REMARK  100  A    between atoms: _242  and  _245
REMARK  101  A    between atoms: _245  and  _246
REMARK  102  A    between atoms: _249  and  _251
REMARK  103  A    between atoms: _251  and  _252
REMARK  104  A    between atoms: _251  and  _254
REMARK  105  A    between atoms: _254  and  _255
REMARK  106  A    between atoms: _258  and  _260
REMARK  107  A    between atoms: _260  and  _261
REMARK  108  A    between atoms: _263  and  _265
REMARK  109  A    between atoms: _265  and  _266
REMARK  110  A    between atoms: _265  and  _268
REMARK  111  A    between atoms: _268  and  _269
REMARK  112  A    between atoms: _269  and  _270
REMARK  113  A    between atoms: _270  and  _271
REMARK  114  A    between atoms: _280  and  _282
REMARK  115  A    between atoms: _282  and  _283
REMARK  116  A    between atoms: _282  and  _285
REMARK  117  A    between atoms: _285  and  _286
REMARK  118  A    between atoms: _286  and  _287
REMARK  119  A    between atoms: _287  and  _288
REMARK  120  A    between atoms: _297  and  _299
REMARK  121  A    between atoms: _299  and  _300
REMARK  122  A    between atoms: _299  and  _302
REMARK  123  A    between atoms: _302  and  _303
REMARK  124  A    between atoms: _306  and  _308
REMARK  125  A    between atoms: _308  and  _309
REMARK  126  A    between atoms: _308  and  _311
REMARK  127  A    between atoms: _311  and  _312
REMARK  128  A    between atoms: _315  and  _317
REMARK  129  A    between atoms: _317  and  _318
REMARK  130  A    between atoms: _317  and  _320
REMARK  131  A    between atoms: _320  and  _321
REMARK  132  A    between atoms: _324  and  _326
REMARK  133  A    between atoms: _326  and  _327
REMARK  134  A    between atoms: _326  and  _329
REMARK  135  A    between atoms: _329  and  _330
REMARK  136  A    between atoms: _333  and  _335
REMARK  137  A    between atoms: _335  and  _336
REMARK  138  A    between atoms: _338  and  _340
REMARK  139  A    between atoms: _340  and  _341
REMARK  140  A    between atoms: _344  and  _346
REMARK  141  A    between atoms: _346  and  _347
REMARK  142  A    between atoms: _346  and  _349
REMARK  143  A    between atoms: _349  and  _350
REMARK  144  A    between atoms: _353  and  _355
REMARK  145  A    between atoms: _355  and  _356
REMARK  146  A    between atoms: _355  and  _358
REMARK  147  A    between atoms: _358  and  _359
REMARK  148  A    between atoms: _362  and  _364
REMARK  149  A    between atoms: _364  and  _365
REMARK  150  A    between atoms: _364  and  _367
REMARK  151  A    between atoms: _367  and  _368
REMARK  152  A    between atoms: _371  and  _373
REMARK  153  A    between atoms: _373  and  _374
REMARK  154  A    between atoms: _373  and  _376
REMARK  155  A    between atoms: _379  and  _381
REMARK  156  A    between atoms: _381  and  _382
REMARK  157  A    between atoms: _381  and  _384
REMARK  158  A    between atoms: _384  and  _385
REMARK  159  A    between atoms: _388  and  _390
REMARK  160  A    between atoms: _390  and  _391
REMARK  161  A    between atoms: _390  and  _393
REMARK  162  A    between atoms: _393  and  _394
REMARK  163  A    between atoms: _394  and  _395
REMARK  164  A    between atoms: _395  and  _396
REMARK  165  A    between atoms: _396  and  _397
REMARK  166  A    between atoms: _401  and  _403
REMARK  167  A    between atoms: _403  and  _404
REMARK  168  A    between atoms: _403  and  _406
REMARK  169  A    between atoms: _406  and  _407
REMARK  170  A    between atoms: _407  and  _408
REMARK  171  A    between atoms: _410  and  _412
REMARK  172  A    between atoms: _412  and  _413
REMARK  173  A    between atoms: _412  and  _415
REMARK  174  A    between atoms: _415  and  _416
REMARK  175  A    between atoms: _419  and  _421
REMARK  176  A    between atoms: _421  and  _422
REMARK  177  A    between atoms: _424  and  _426
REMARK  178  A    between atoms: _426  and  _427
REMARK  179  A    between atoms: _429  and  _431
REMARK  180  A    between atoms: _431  and  _432
REMARK  181  A    between atoms: _431  and  _434
REMARK  182  A    between atoms: _434  and  _435
REMARK  183  A    between atoms: _438  and  _440
REMARK  184  A    between atoms: _440  and  _441
REMARK  185  A    between atoms: _443  and  _445
REMARK  186  A    between atoms: _445  and  _446
REMARK  187  A    between atoms: _448  and  _450
REMARK  188  A    between atoms: _450  and  _451
REMARK  189  A    between atoms: _450  and  _453
REMARK  190  A    between atoms: _453  and  _454
REMARK  191  A    between atoms: _460  and  _462
REMARK  192  A    between atoms: _462  and  _463
REMARK  193  A    between atoms: _462  and  _465
REMARK  194  A    between atoms: _465  and  _466
REMARK  195  A    between atoms: _469  and  _471
REMARK  196  A    between atoms: _471  and  _472
REMARK  197  A    between atoms: _471  and  _474
REMARK  198  A    between atoms: _477  and  _479
REMARK  199  A    between atoms: _479  and  _480
REMARK  200  A    between atoms: _479  and  _482
REMARK  201  A    between atoms: _482  and  _483
REMARK  202  A    between atoms: _487  and  _488
REMARK  203  A    between atoms: _493  and  _495
REMARK  204  A    between atoms: _495  and  _496
REMARK  205  A    between atoms: _495  and  _498
REMARK  206  A    between atoms: _498  and  _499
REMARK  207  A    between atoms: _503  and  _504
REMARK  208  A    between atoms: _509  and  _511
REMARK  209  A    between atoms: _511  and  _512
REMARK  210  A    between atoms: _511  and  _514
REMARK  211  A    between atoms: _517  and  _519
REMARK  212  A    between atoms: _519  and  _520
REMARK  213  A    between atoms: _519  and  _522
REMARK  214  A    between atoms: _522  and  _523
REMARK  215  A    between atoms: _528  and  _530
REMARK  216  A    between atoms: _530  and  _531
REMARK  217  A    between atoms: _530  and  _533
REMARK  218  A    between atoms: _533  and  _534
REMARK  219  A    between atoms: _537  and  _539
REMARK  220  A    between atoms: _539  and  _540
REMARK  221  A    between atoms: _539  and  _542
REMARK  222  A    between atoms: _542  and  _543
REMARK  223  A    between atoms: _546  and  _548
REMARK  224  A    between atoms: _548  and  _549
REMARK  225  A    between atoms: _551  and  _553
REMARK  226  A    between atoms: _553  and  _554
REMARK  227  A    between atoms: _553  and  _556
REMARK  228  A    between atoms: _556  and  _557
REMARK  229  A    between atoms: _557  and  _558
REMARK  230  A    between atoms: _558  and  _559
REMARK  231  A    between atoms: _568  and  _570
REMARK  232  A    between atoms: _570  and  _571
REMARK  233  A    between atoms: _570  and  _573
REMARK  234  A    between atoms: _573  and  _574
REMARK                            x       y       z     vdW  Elec       q    Type
REMARK                         _______ _______ _______ _____ _____    ______ ____
ROOT
ATOM      1  O   HOH     1       0.337 -15.007 -13.352  0.00  0.00    +0.000 OA
ENDROOT
TORSDOF 0
REMARK  Name = ../refined-set-2016/2o4s/2o4s_pocket.pdb
REMARK  234 active torsions:
REMARK  status: ('A' for Active; 'I' for Inactive)
REMARK    1  A    between atoms: _1  and  _3
REMARK    2  A    between atoms: _3  and  _4
REMARK    3  A    between atoms: _3  and  _6
REMARK    4  A    between atoms: _6  and  _7
REMARK    5  A    between atoms: _7  and  _8
REMARK    6  A    between atoms: _8  and  _9
REMARK    7  A    between atoms: _18  and  _20
REMARK    8  A    between atoms: _20  and  _21
REMARK    9  A    between atoms: _20  and  _23
REMARK   10  A    between atoms: _23  and  _24
REMARK   11  A    between atoms: _27  and  _29
REMARK   12  A    between atoms: _29  and  _30
REMARK   13  A    between atoms: _29  and  _32
REMARK   14  A    between atoms: _32  and  _33
REMARK   15  A    between atoms: _36  and  _38
REMARK   16  A    between atoms: _38  and  _39
REMARK   17  A    between atoms: _38  and  _41
REMARK   18  A    between atoms: _41  and  _42
REMARK   19  A    between atoms: _45  and  _47
REMARK   20  A    between atoms: _47  and  _48
REMARK   21  A    between atoms: _47  and  _50
REMARK   22  A    between atoms: _50  and  _51
REMARK   23  A    between atoms: _54  and  _56
REMARK   24  A    between atoms: _56  and  _57
REMARK   25  A    between atoms: _59  and  _61
REMARK   26  A    between atoms: _61  and  _62
REMARK   27  A    between atoms: _65  and  _67
REMARK   28  A    between atoms: _67  and  _68
REMARK   29  A    between atoms: _67  and  _70
REMARK   30  A    between atoms: _70  and  _71
REMARK   31  A    between atoms: _74  and  _76
REMARK   32  A    between atoms: _76  and  _77
REMARK   33  A    between atoms: _76  and  _79
REMARK   34  A    between atoms: _79  and  _80
REMARK   35  A    between atoms: _83  and  _85
REMARK   36  A    between atoms: _85  and  _86
REMARK   37  A    between atoms: _85  and  _88
REMARK   38  A    between atoms: _88  and  _89
REMARK   39  A    between atoms: _92  and  _94
REMARK   40  A    between atoms: _94  and  _95
REMARK   41  A    between atoms: _94  and  _97
REMARK   42  A    between atoms: _100  and  _102
REMARK   43  A    between atoms: _102  and  _103
REMARK   44  A    between atoms: _102  and  _105
REMARK   45  A    between atoms: _105  and  _106
REMARK   46  A    between atoms: _106  and  _107
REMARK   47  A    between atoms: _107  and  _108
REMARK   48  A    between atoms: _108  and  _109
REMARK   49  A    between atoms: _113  and  _115
REMARK   50  A    between atoms: _115  and  _116
REMARK   51  A    between atoms: _115  and  _118
REMARK   52  A    between atoms: _118  and  _119
REMARK   53  A    between atoms: _119  and  _120
REMARK   54  A    between atoms: _122  and  _124
REMARK   55  A    between atoms: _124  and  _125
REMARK   56  A    between atoms: _124  and  _127
REMARK   57  A    between atoms: _127  and  _128
REMARK   58  A    between atoms: _131  and  _133
REMARK   59  A    between atoms: _133  and  _134
REMARK   60  A    between atoms: _136  and  _138
REMARK   61  A    between atoms: _138  and  _139
REMARK   62  A    between atoms: _141  and  _143
REMARK   63  A    between atoms: _143  and  _144
REMARK   64  A    between atoms: _143  and  _146
REMARK   65  A    between atoms: _146  and  _147
REMARK   66  A    between atoms: _150  and  _152
REMARK   67  A    between atoms: _152  and  _153
REMARK   68  A    between atoms: _155  and  _157
REMARK   69  A    between atoms: _157  and  _158
REMARK   70  A    between atoms: _160  and  _162
REMARK   71  A    between atoms: _162  and  _163
REMARK   72  A    between atoms: _162  and  _165
REMARK   73  A    between atoms: _165  and  _166
REMARK   74  A    between atoms: _172  and  _174
REMARK   75  A    between atoms: _174  and  _175
REMARK   76  A    between atoms: _174  and  _177
REMARK   77  A    between atoms: _177  and  _178
REMARK   78  A    between atoms: _181  and  _183
REMARK   79  A    between atoms: _183  and  _184
REMARK   80  A    between atoms: _183  and  _186
REMARK   81  A    between atoms: _189  and  _191
REMARK   82  A    between atoms: _191  and  _192
REMARK   83  A    between atoms: _191  and  _194
REMARK   84  A    between atoms: _194  and  _195
REMARK   85  A    between atoms: _199  and  _200
REMARK   86  A    between atoms: _205  and  _207
REMARK   87  A    between atoms: _207  and  _208
REMARK   88  A    between atoms: _207  and  _210
REMARK   89  A    between atoms: _210  and  _211
REMARK   90  A    between atoms: _215  and  _216
REMARK   91  A    between atoms: _221  and  _223
REMARK   92  A    between atoms: _223  and  _224
REMARK   93  A    between atoms: _223  and  _226
REMARK   94  A    between atoms: _229  and  _231
REMARK   95  A    between atoms: _231  and  _232
REMARK   96  A    between atoms: _231  and  _234
REMARK   97  A    between atoms: _234  and  _235
REMARK   98  A    between atoms: _240  and  _242
REMARK   99  A    between atoms: _242  and  _243
REMARK  100  A    between atoms: _242  and  _245
REMARK  101  A    between atoms: _245  and  _246
REMARK  102  A    between atoms: _249  and  _251
REMARK  103  A    between atoms: _251  and  _252
REMARK  104  A    between atoms: _251  and  _254
REMARK  105  A    between atoms: _254  and  _255
REMARK  106  A    between atoms: _258  and  _260
REMARK  107  A    between atoms: _260  and  _261
REMARK  108  A    between atoms: _263  and  _265
REMARK  109  A    between atoms: _265  and  _266
REMARK  110  A    between atoms: _265  and  _268
REMARK  111  A    between atoms: _268  and  _269
REMARK  112  A    between atoms: _269  and  _270
REMARK  113  A    between atoms: _270  and  _271
REMARK  114  A    between atoms: _280  and  _282
REMARK  115  A    between atoms: _282  and  _283
REMARK  116  A    between atoms: _282  and  _285
REMARK  117  A    between atoms: _285  and  _286
REMARK  118  A    between atoms: _286  and  _287
REMARK  119  A    between atoms: _287  and  _288
REMARK  120  A    between atoms: _297  and  _299
REMARK  121  A    between atoms: _299  and  _300
REMARK  122  A    between atoms: _299  and  _302
REMARK  123  A    between atoms: _302  and  _303
REMARK  124  A    between atoms: _306  and  _308
REMARK  125  A    between atoms: _308  and  _309
REMARK  126  A    between atoms: _308  and  _311
REMARK  127  A    between atoms: _311  and  _312
REMARK  128  A    between atoms: _315  and  _317
REMARK  129  A    between atoms: _317  and  _318
REMARK  130  A    between atoms: _317  and  _320
REMARK  131  A    between atoms: _320  and  _321
REMARK  132  A    between atoms: _324  and  _326
REMARK  133  A    between atoms: _326  and  _327
REMARK  134  A    between atoms: _326  and  _329
REMARK  135  A    between atoms: _329  and  _330
REMARK  136  A    between atoms: _333  and  _335
REMARK  137  A    between atoms: _335  and  _336
REMARK  138  A    between atoms: _338  and  _340
REMARK  139  A    between atoms: _340  and  _341
REMARK  140  A    between atoms: _344  and  _346
REMARK  141  A    between atoms: _346  and  _347
REMARK  142  A    between atoms: _346  and  _349
REMARK  143  A    between atoms: _349  and  _350
REMARK  144  A    between atoms: _353  and  _355
REMARK  145  A    between atoms: _355  and  _356
REMARK  146  A    between atoms: _355  and  _358
REMARK  147  A    between atoms: _358  and  _359
REMARK  148  A    between atoms: _362  and  _364
REMARK  149  A    between atoms: _364  and  _365
REMARK  150  A    between atoms: _364  and  _367
REMARK  151  A    between atoms: _367  and  _368
REMARK  152  A    between atoms: _371  and  _373
REMARK  153  A    between atoms: _373  and  _374
REMARK  154  A    between atoms: _373  and  _376
REMARK  155  A    between atoms: _379  and  _381
REMARK  156  A    between atoms: _381  and  _382
REMARK  157  A    between atoms: _381  and  _384
REMARK  158  A    between atoms: _384  and  _385
REMARK  159  A    between atoms: _388  and  _390
REMARK  160  A    between atoms: _390  and  _391
REMARK  161  A    between atoms: _390  and  _393
REMARK  162  A    between atoms: _393  and  _394
REMARK  163  A    between atoms: _394  and  _395
REMARK  164  A    between atoms: _395  and  _396
REMARK  165  A    between atoms: _396  and  _397
REMARK  166  A    between atoms: _401  and  _403
REMARK  167  A    between atoms: _403  and  _404
REMARK  168  A    between atoms: _403  and  _406
REMARK  169  A    between atoms: _406  and  _407
REMARK  170  A    between atoms: _407  and  _408
REMARK  171  A    between atoms: _410  and  _412
REMARK  172  A    between atoms: _412  and  _413
REMARK  173  A    between atoms: _412  and  _415
REMARK  174  A    between atoms: _415  and  _416
REMARK  175  A    between atoms: _419  and  _421
REMARK  176  A    between atoms: _421  and  _422
REMARK  177  A    between atoms: _424  and  _426
REMARK  178  A    between atoms: _426  and  _427
REMARK  179  A    between atoms: _429  and  _431
REMARK  180  A    between atoms: _431  and  _432
REMARK  181  A    between atoms: _431  and  _434
REMARK  182  A    between atoms: _434  and  _435
REMARK  183  A    between atoms: _438  and  _440
REMARK  184  A    between atoms: _440  and  _441
REMARK  185  A    between atoms: _443  and  _445
REMARK  186  A    between atoms: _445  and  _446
REMARK  187  A    between atoms: _448  and  _450
REMARK  188  A    between atoms: _450  and  _451
REMARK  189  A    between atoms: _450  and  _453
REMARK  190  A    between atoms: _453  and  _454
REMARK  191  A    between atoms: _460  and  _462
REMARK  192  A    between atoms: _462  and  _463
REMARK  193  A    between atoms: _462  and  _465
REMARK  194  A    between atoms: _465  and  _466
REMARK  195  A    between atoms: _469  and  _471
REMARK  196  A    between atoms: _471  and  _472
REMARK  197  A    between atoms: _471  and  _474
REMARK  198  A    between atoms: _477  and  _479
REMARK  199  A    between atoms: _479  and  _480
REMARK  200  A    between atoms: _479  and  _482
REMARK  201  A    between atoms: _482  and  _483
REMARK  202  A    between atoms: _487  and  _488
REMARK  203  A    between atoms: _493  and  _495
REMARK  204  A    between atoms: _495  and  _496
REMARK  205  A    between atoms: _495  and  _498
REMARK  206  A    between atoms: _498  and  _499
REMARK  207  A    between atoms: _503  and  _504
REMARK  208  A    between atoms: _509  and  _511
REMARK  209  A    between atoms: _511  and  _512
REMARK  210  A    between atoms: _511  and  _514
REMARK  211  A    between atoms: _517  and  _519
REMARK  212  A    between atoms: _519  and  _520
REMARK  213  A    between atoms: _519  and  _522
REMARK  214  A    between atoms: _522  and  _523
REMARK  215  A    between atoms: _528  and  _530
REMARK  216  A    between atoms: _530  and  _531
REMARK  217  A    between atoms: _530  and  _533
REMARK  218  A    between atoms: _533  and  _534
REMARK  219  A    between atoms: _537  and  _539
REMARK  220  A    between atoms: _539  and  _540
REMARK  221  A    between atoms: _539  and  _542
REMARK  222  A    between atoms: _542  and  _543
REMARK  223  A    between atoms: _546  and  _548
REMARK  224  A    between atoms: _548  and  _549
REMARK  225  A    between atoms: _551  and  _553
REMARK  226  A    between atoms: _553  and  _554
REMARK  227  A    between atoms: _553  and  _556
REMARK  228  A    between atoms: _556  and  _557
REMARK  229  A    between atoms: _557  and  _558
REMARK  230  A    between atoms: _558  and  _559
REMARK  231  A    between atoms: _568  and  _570
REMARK  232  A    between atoms: _570  and  _571
REMARK  233  A    between atoms: _570  and  _573
REMARK  234  A    between atoms: _573  and  _574
REMARK                            x       y       z     vdW  Elec       q    Type
REMARK                         _______ _______ _______ _____ _____    ______ ____
ROOT
ATOM      1  O   HOH     1      20.926 -26.677 -13.078  0.00  0.00    +0.000 OA
ENDROOT
TORSDOF 0
REMARK  Name = ../refined-set-2016/2o4s/2o4s_pocket.pdb
REMARK  234 active torsions:
REMARK  status: ('A' for Active; 'I' for Inactive)
REMARK    1  A    between atoms: _1  and  _3
REMARK    2  A    between atoms: _3  and  _4
REMARK    3  A    between atoms: _3  and  _6
REMARK    4  A    between atoms: _6  and  _7
REMARK    5  A    between atoms: _7  and  _8
REMARK    6  A    between atoms: _8  and  _9
REMARK    7  A    between atoms: _18  and  _20
REMARK    8  A    between atoms: _20  and  _21
REMARK    9  A    between atoms: _20  and  _23
REMARK   10  A    between atoms: _23  and  _24
REMARK   11  A    between atoms: _27  and  _29
REMARK   12  A    between atoms: _29  and  _30
REMARK   13  A    between atoms: _29  and  _32
REMARK   14  A    between atoms: _32  and  _33
REMARK   15  A    between atoms: _36  and  _38
REMARK   16  A    between atoms: _38  and  _39
REMARK   17  A    between atoms: _38  and  _41
REMARK   18  A    between atoms: _41  and  _42
REMARK   19  A    between atoms: _45  and  _47
REMARK   20  A    between atoms: _47  and  _48
REMARK   21  A    between atoms: _47  and  _50
REMARK   22  A    between atoms: _50  and  _51
REMARK   23  A    between atoms: _54  and  _56
REMARK   24  A    between atoms: _56  and  _57
REMARK   25  A    between atoms: _59  and  _61
REMARK   26  A    between atoms: _61  and  _62
REMARK   27  A    between atoms: _65  and  _67
REMARK   28  A    between atoms: _67  and  _68
REMARK   29  A    between atoms: _67  and  _70
REMARK   30  A    between atoms: _70  and  _71
REMARK   31  A    between atoms: _74  and  _76
REMARK   32  A    between atoms: _76  and  _77
REMARK   33  A    between atoms: _76  and  _79
REMARK   34  A    between atoms: _79  and  _80
REMARK   35  A    between atoms: _83  and  _85
REMARK   36  A    between atoms: _85  and  _86
REMARK   37  A    between atoms: _85  and  _88
REMARK   38  A    between atoms: _88  and  _89
REMARK   39  A    between atoms: _92  and  _94
REMARK   40  A    between atoms: _94  and  _95
REMARK   41  A    between atoms: _94  and  _97
REMARK   42  A    between atoms: _100  and  _102
REMARK   43  A    between atoms: _102  and  _103
REMARK   44  A    between atoms: _102  and  _105
REMARK   45  A    between atoms: _105  and  _106
REMARK   46  A    between atoms: _106  and  _107
REMARK   47  A    between atoms: _107  and  _108
REMARK   48  A    between atoms: _108  and  _109
REMARK   49  A    between atoms: _113  and  _115
REMARK   50  A    between atoms: _115  and  _116
REMARK   51  A    between atoms: _115  and  _118
REMARK   52  A    between atoms: _118  and  _119
REMARK   53  A    between atoms: _119  and  _120
REMARK   54  A    between atoms: _122  and  _124
REMARK   55  A    between atoms: _124  and  _125
REMARK   56  A    between atoms: _124  and  _127
REMARK   57  A    between atoms: _127  and  _128
REMARK   58  A    between atoms: _131  and  _133
REMARK   59  A    between atoms: _133  and  _134
REMARK   60  A    between atoms: _136  and  _138
REMARK   61  A    between atoms: _138  and  _139
REMARK   62  A    between atoms: _141  and  _143
REMARK   63  A    between atoms: _143  and  _144
REMARK   64  A    between atoms: _143  and  _146
REMARK   65  A    between atoms: _146  and  _147
REMARK   66  A    between atoms: _150  and  _152
REMARK   67  A    between atoms: _152  and  _153
REMARK   68  A    between atoms: _155  and  _157
REMARK   69  A    between atoms: _157  and  _158
REMARK   70  A    between atoms: _160  and  _162
REMARK   71  A    between atoms: _162  and  _163
REMARK   72  A    between atoms: _162  and  _165
REMARK   73  A    between atoms: _165  and  _166
REMARK   74  A    between atoms: _172  and  _174
REMARK   75  A    between atoms: _174  and  _175
REMARK   76  A    between atoms: _174  and  _177
REMARK   77  A    between atoms: _177  and  _178
REMARK   78  A    between atoms: _181  and  _183
REMARK   79  A    between atoms: _183  and  _184
REMARK   80  A    between atoms: _183  and  _186
REMARK   81  A    between atoms: _189  and  _191
REMARK   82  A    between atoms: _191  and  _192
REMARK   83  A    between atoms: _191  and  _194
REMARK   84  A    between atoms: _194  and  _195
REMARK   85  A    between atoms: _199  and  _200
REMARK   86  A    between atoms: _205  and  _207
REMARK   87  A    between atoms: _207  and  _208
REMARK   88  A    between atoms: _207  and  _210
REMARK   89  A    between atoms: _210  and  _211
REMARK   90  A    between atoms: _215  and  _216
REMARK   91  A    between atoms: _221  and  _223
REMARK   92  A    between atoms: _223  and  _224
REMARK   93  A    between atoms: _223  and  _226
REMARK   94  A    between atoms: _229  and  _231
REMARK   95  A    between atoms: _231  and  _232
REMARK   96  A    between atoms: _231  and  _234
REMARK   97  A    between atoms: _234  and  _235
REMARK   98  A    between atoms: _240  and  _242
REMARK   99  A    between atoms: _242  and  _243
REMARK  100  A    between atoms: _242  and  _245
REMARK  101  A    between atoms: _245  and  _246
REMARK  102  A    between atoms: _249  and  _251
REMARK  103  A    between atoms: _251  and  _252
REMARK  104  A    between atoms: _251  and  _254
REMARK  105  A    between atoms: _254  and  _255
REMARK  106  A    between atoms: _258  and  _260
REMARK  107  A    between atoms: _260  and  _261
REMARK  108  A    between atoms: _263  and  _265
REMARK  109  A    between atoms: _265  and  _266
REMARK  110  A    between atoms: _265  and  _268
REMARK  111  A    between atoms: _268  and  _269
REMARK  112  A    between atoms: _269  and  _270
REMARK  113  A    between atoms: _270  and  _271
REMARK  114  A    between atoms: _280  and  _282
REMARK  115  A    between atoms: _282  and  _283
REMARK  116  A    between atoms: _282  and  _285
REMARK  117  A    between atoms: _285  and  _286
REMARK  118  A    between atoms: _286  and  _287
REMARK  119  A    between atoms: _287  and  _288
REMARK  120  A    between atoms: _297  and  _299
REMARK  121  A    between atoms: _299  and  _300
REMARK  122  A    between atoms: _299  and  _302
REMARK  123  A    between atoms: _302  and  _303
REMARK  124  A    between atoms: _306  and  _308
REMARK  125  A    between atoms: _308  and  _309
REMARK  126  A    between atoms: _308  and  _311
REMARK  127  A    between atoms: _311  and  _312
REMARK  128  A    between atoms: _315  and  _317
REMARK  129  A    between atoms: _317  and  _318
REMARK  130  A    between atoms: _317  and  _320
REMARK  131  A    between atoms: _320  and  _321
REMARK  132  A    between atoms: _324  and  _326
REMARK  133  A    between atoms: _326  and  _327
REMARK  134  A    between atoms: _326  and  _329
REMARK  135  A    between atoms: _329  and  _330
REMARK  136  A    between atoms: _333  and  _335
REMARK  137  A    between atoms: _335  and  _336
REMARK  138  A    between atoms: _338  and  _340
REMARK  139  A    between atoms: _340  and  _341
REMARK  140  A    between atoms: _344  and  _346
REMARK  141  A    between atoms: _346  and  _347
REMARK  142  A    between atoms: _346  and  _349
REMARK  143  A    between atoms: _349  and  _350
REMARK  144  A    between atoms: _353  and  _355
REMARK  145  A    between atoms: _355  and  _356
REMARK  146  A    between atoms: _355  and  _358
REMARK  147  A    between atoms: _358  and  _359
REMARK  148  A    between atoms: _362  and  _364
REMARK  149  A    between atoms: _364  and  _365
REMARK  150  A    between atoms: _364  and  _367
REMARK  151  A    between atoms: _367  and  _368
REMARK  152  A    between atoms: _371  and  _373
REMARK  153  A    between atoms: _373  and  _374
REMARK  154  A    between atoms: _373  and  _376
REMARK  155  A    between atoms: _379  and  _381
REMARK  156  A    between atoms: _381  and  _382
REMARK  157  A    between atoms: _381  and  _384
REMARK  158  A    between atoms: _384  and  _385
REMARK  159  A    between atoms: _388  and  _390
REMARK  160  A    between atoms: _390  and  _391
REMARK  161  A    between atoms: _390  and  _393
REMARK  162  A    between atoms: _393  and  _394
REMARK  163  A    between atoms: _394  and  _395
REMARK  164  A    between atoms: _395  and  _396
REMARK  165  A    between atoms: _396  and  _397
REMARK  166  A    between atoms: _401  and  _403
REMARK  167  A    between atoms: _403  and  _404
REMARK  168  A    between atoms: _403  and  _406
REMARK  169  A    between atoms: _406  and  _407
REMARK  170  A    between atoms: _407  and  _408
REMARK  171  A    between atoms: _410  and  _412
REMARK  172  A    between atoms: _412  and  _413
REMARK  173  A    between atoms: _412  and  _415
REMARK  174  A    between atoms: _415  and  _416
REMARK  175  A    between atoms: _419  and  _421
REMARK  176  A    between atoms: _421  and  _422
REMARK  177  A    between atoms: _424  and  _426
REMARK  178  A    between atoms: _426  and  _427
REMARK  179  A    between atoms: _429  and  _431
REMARK  180  A    between atoms: _431  and  _432
REMARK  181  A    between atoms: _431  and  _434
REMARK  182  A    between atoms: _434  and  _435
REMARK  183  A    between atoms: _438  and  _440
REMARK  184  A    between atoms: _440  and  _441
REMARK  185  A    between atoms: _443  and  _445
REMARK  186  A    between atoms: _445  and  _446
REMARK  187  A    between atoms: _448  and  _450
REMARK  188  A    between atoms: _450  and  _451
REMARK  189  A    between atoms: _450  and  _453
REMARK  190  A    between atoms: _453  and  _454
REMARK  191  A    between atoms: _460  and  _462
REMARK  192  A    between atoms: _462  and  _463
REMARK  193  A    between atoms: _462  and  _465
REMARK  194  A    between atoms: _465  and  _466
REMARK  195  A    between atoms: _469  and  _471
REMARK  196  A    between atoms: _471  and  _472
REMARK  197  A    between atoms: _471  and  _474
REMARK  198  A    between atoms: _477  and  _479
REMARK  199  A    between atoms: _479  and  _480
REMARK  200  A    between atoms: _479  and  _482
REMARK  201  A    between atoms: _482  and  _483
REMARK  202  A    between atoms: _487  and  _488
REMARK  203  A    between atoms: _493  and  _495
REMARK  204  A    between atoms: _495  and  _496
REMARK  205  A    between atoms: _495  and  _498
REMARK  206  A    between atoms: _498  and  _499
REMARK  207  A    between atoms: _503  and  _504
REMARK  208  A    between atoms: _509  and  _511
REMARK  209  A    between atoms: _511  and  _512
REMARK  210  A    between atoms: _511  and  _514
REMARK  211  A    between atoms: _517  and  _519
REMARK  212  A    between atoms: _519  and  _520
REMARK  213  A    between atoms: _519  and  _522
REMARK  214  A    between atoms: _522  and  _523
REMARK  215  A    between atoms: _528  and  _530
REMARK  216  A    between atoms: _530  and  _531
REMARK  217  A    between atoms: _530  and  _533
REMARK  218  A    between atoms: _533  and  _534
REMARK  219  A    between atoms: _537  and  _539
REMARK  220  A    between atoms: _539  and  _540
REMARK  221  A    between atoms: _539  and  _542
REMARK  222  A    between atoms: _542  and  _543
REMARK  223  A    between atoms: _546  and  _548
REMARK  224  A    between atoms: _548  and  _549
REMARK  225  A    between atoms: _551  and  _553
REMARK  226  A    between atoms: _553  and  _554
REMARK  227  A    between atoms: _553  and  _556
REMARK  228  A    between atoms: _556  and  _557
REMARK  229  A    between atoms: _557  and  _558
REMARK  230  A    between atoms: _558  and  _559
REMARK  231  A    between atoms: _568  and  _570
REMARK  232  A    between atoms: _570  and  _571
REMARK  233  A    between atoms: _570  and  _573
REMARK  234  A    between atoms: _573  and  _574
REMARK                            x       y       z     vdW  Elec       q    Type
REMARK                         _______ _______ _______ _____ _____    ______ ____
ROOT
ATOM      1  O   HOH     1      -0.375 -18.072 -14.244  0.00  0.00    +0.000 OA
ENDROOT
TORSDOF 0
REMARK  Name = ../refined-set-2016/2o4s/2o4s_pocket.pdb
REMARK  234 active torsions:
REMARK  status: ('A' for Active; 'I' for Inactive)
REMARK    1  A    between atoms: _1  and  _3
REMARK    2  A    between atoms: _3  and  _4
REMARK    3  A    between atoms: _3  and  _6
REMARK    4  A    between atoms: _6  and  _7
REMARK    5  A    between atoms: _7  and  _8
REMARK    6  A    between atoms: _8  and  _9
REMARK    7  A    between atoms: _18  and  _20
REMARK    8  A    between atoms: _20  and  _21
REMARK    9  A    between atoms: _20  and  _23
REMARK   10  A    between atoms: _23  and  _24
REMARK   11  A    between atoms: _27  and  _29
REMARK   12  A    between atoms: _29  and  _30
REMARK   13  A    between atoms: _29  and  _32
REMARK   14  A    between atoms: _32  and  _33
REMARK   15  A    between atoms: _36  and  _38
REMARK   16  A    between atoms: _38  and  _39
REMARK   17  A    between atoms: _38  and  _41
REMARK   18  A    between atoms: _41  and  _42
REMARK   19  A    between atoms: _45  and  _47
REMARK   20  A    between atoms: _47  and  _48
REMARK   21  A    between atoms: _47  and  _50
REMARK   22  A    between atoms: _50  and  _51
REMARK   23  A    between atoms: _54  and  _56
REMARK   24  A    between atoms: _56  and  _57
REMARK   25  A    between atoms: _59  and  _61
REMARK   26  A    between atoms: _61  and  _62
REMARK   27  A    between atoms: _65  and  _67
REMARK   28  A    between atoms: _67  and  _68
REMARK   29  A    between atoms: _67  and  _70
REMARK   30  A    between atoms: _70  and  _71
REMARK   31  A    between atoms: _74  and  _76
REMARK   32  A    between atoms: _76  and  _77
REMARK   33  A    between atoms: _76  and  _79
REMARK   34  A    between atoms: _79  and  _80
REMARK   35  A    between atoms: _83  and  _85
REMARK   36  A    between atoms: _85  and  _86
REMARK   37  A    between atoms: _85  and  _88
REMARK   38  A    between atoms: _88  and  _89
REMARK   39  A    between atoms: _92  and  _94
REMARK   40  A    between atoms: _94  and  _95
REMARK   41  A    between atoms: _94  and  _97
REMARK   42  A    between atoms: _100  and  _102
REMARK   43  A    between atoms: _102  and  _103
REMARK   44  A    between atoms: _102  and  _105
REMARK   45  A    between atoms: _105  and  _106
REMARK   46  A    between atoms: _106  and  _107
REMARK   47  A    between atoms: _107  and  _108
REMARK   48  A    between atoms: _108  and  _109
REMARK   49  A    between atoms: _113  and  _115
REMARK   50  A    between atoms: _115  and  _116
REMARK   51  A    between atoms: _115  and  _118
REMARK   52  A    between atoms: _118  and  _119
REMARK   53  A    between atoms: _119  and  _120
REMARK   54  A    between atoms: _122  and  _124
REMARK   55  A    between atoms: _124  and  _125
REMARK   56  A    between atoms: _124  and  _127
REMARK   57  A    between atoms: _127  and  _128
REMARK   58  A    between atoms: _131  and  _133
REMARK   59  A    between atoms: _133  and  _134
REMARK   60  A    between atoms: _136  and  _138
REMARK   61  A    between atoms: _138  and  _139
REMARK   62  A    between atoms: _141  and  _143
REMARK   63  A    between atoms: _143  and  _144
REMARK   64  A    between atoms: _143  and  _146
REMARK   65  A    between atoms: _146  and  _147
REMARK   66  A    between atoms: _150  and  _152
REMARK   67  A    between atoms: _152  and  _153
REMARK   68  A    between atoms: _155  and  _157
REMARK   69  A    between atoms: _157  and  _158
REMARK   70  A    between atoms: _160  and  _162
REMARK   71  A    between atoms: _162  and  _163
REMARK   72  A    between atoms: _162  and  _165
REMARK   73  A    between atoms: _165  and  _166
REMARK   74  A    between atoms: _172  and  _174
REMARK   75  A    between atoms: _174  and  _175
REMARK   76  A    between atoms: _174  and  _177
REMARK   77  A    between atoms: _177  and  _178
REMARK   78  A    between atoms: _181  and  _183
REMARK   79  A    between atoms: _183  and  _184
REMARK   80  A    between atoms: _183  and  _186
REMARK   81  A    between atoms: _189  and  _191
REMARK   82  A    between atoms: _191  and  _192
REMARK   83  A    between atoms: _191  and  _194
REMARK   84  A    between atoms: _194  and  _195
REMARK   85  A    between atoms: _199  and  _200
REMARK   86  A    between atoms: _205  and  _207
REMARK   87  A    between atoms: _207  and  _208
REMARK   88  A    between atoms: _207  and  _210
REMARK   89  A    between atoms: _210  and  _211
REMARK   90  A    between atoms: _215  and  _216
REMARK   91  A    between atoms: _221  and  _223
REMARK   92  A    between atoms: _223  and  _224
REMARK   93  A    between atoms: _223  and  _226
REMARK   94  A    between atoms: _229  and  _231
REMARK   95  A    between atoms: _231  and  _232
REMARK   96  A    between atoms: _231  and  _234
REMARK   97  A    between atoms: _234  and  _235
REMARK   98  A    between atoms: _240  and  _242
REMARK   99  A    between atoms: _242  and  _243
REMARK  100  A    between atoms: _242  and  _245
REMARK  101  A    between atoms: _245  and  _246
REMARK  102  A    between atoms: _249  and  _251
REMARK  103  A    between atoms: _251  and  _252
REMARK  104  A    between atoms: _251  and  _254
REMARK  105  A    between atoms: _254  and  _255
REMARK  106  A    between atoms: _258  and  _260
REMARK  107  A    between atoms: _260  and  _261
REMARK  108  A    between atoms: _263  and  _265
REMARK  109  A    between atoms: _265  and  _266
REMARK  110  A    between atoms: _265  and  _268
REMARK  111  A    between atoms: _268  and  _269
REMARK  112  A    between atoms: _269  and  _270
REMARK  113  A    between atoms: _270  and  _271
REMARK  114  A    between atoms: _280  and  _282
REMARK  115  A    between atoms: _282  and  _283
REMARK  116  A    between atoms: _282  and  _285
REMARK  117  A    between atoms: _285  and  _286
REMARK  118  A    between atoms: _286  and  _287
REMARK  119  A    between atoms: _287  and  _288
REMARK  120  A    between atoms: _297  and  _299
REMARK  121  A    between atoms: _299  and  _300
REMARK  122  A    between atoms: _299  and  _302
REMARK  123  A    between atoms: _302  and  _303
REMARK  124  A    between atoms: _306  and  _308
REMARK  125  A    between atoms: _308  and  _309
REMARK  126  A    between atoms: _308  and  _311
REMARK  127  A    between atoms: _311  and  _312
REMARK  128  A    between atoms: _315  and  _317
REMARK  129  A    between atoms: _317  and  _318
REMARK  130  A    between atoms: _317  and  _320
REMARK  131  A    between atoms: _320  and  _321
REMARK  132  A    between atoms: _324  and  _326
REMARK  133  A    between atoms: _326  and  _327
REMARK  134  A    between atoms: _326  and  _329
REMARK  135  A    between atoms: _329  and  _330
REMARK  136  A    between atoms: _333  and  _335
REMARK  137  A    between atoms: _335  and  _336
REMARK  138  A    between atoms: _338  and  _340
REMARK  139  A    between atoms: _340  and  _341
REMARK  140  A    between atoms: _344  and  _346
REMARK  141  A    between atoms: _346  and  _347
REMARK  142  A    between atoms: _346  and  _349
REMARK  143  A    between atoms: _349  and  _350
REMARK  144  A    between atoms: _353  and  _355
REMARK  145  A    between atoms: _355  and  _356
REMARK  146  A    between atoms: _355  and  _358
REMARK  147  A    between atoms: _358  and  _359
REMARK  148  A    between atoms: _362  and  _364
REMARK  149  A    between atoms: _364  and  _365
REMARK  150  A    between atoms: _364  and  _367
REMARK  151  A    between atoms: _367  and  _368
REMARK  152  A    between atoms: _371  and  _373
REMARK  153  A    between atoms: _373  and  _374
REMARK  154  A    between atoms: _373  and  _376
REMARK  155  A    between atoms: _379  and  _381
REMARK  156  A    between atoms: _381  and  _382
REMARK  157  A    between atoms: _381  and  _384
REMARK  158  A    between atoms: _384  and  _385
REMARK  159  A    between atoms: _388  and  _390
REMARK  160  A    between atoms: _390  and  _391
REMARK  161  A    between atoms: _390  and  _393
REMARK  162  A    between atoms: _393  and  _394
REMARK  163  A    between atoms: _394  and  _395
REMARK  164  A    between atoms: _395  and  _396
REMARK  165  A    between atoms: _396  and  _397
REMARK  166  A    between atoms: _401  and  _403
REMARK  167  A    between atoms: _403  and  _404
REMARK  168  A    between atoms: _403  and  _406
REMARK  169  A    between atoms: _406  and  _407
REMARK  170  A    between atoms: _407  and  _408
REMARK  171  A    between atoms: _410  and  _412
REMARK  172  A    between atoms: _412  and  _413
REMARK  173  A    between atoms: _412  and  _415
REMARK  174  A    between atoms: _415  and  _416
REMARK  175  A    between atoms: _419  and  _421
REMARK  176  A    between atoms: _421  and  _422
REMARK  177  A    between atoms: _424  and  _426
REMARK  178  A    between atoms: _426  and  _427
REMARK  179  A    between atoms: _429  and  _431
REMARK  180  A    between atoms: _431  and  _432
REMARK  181  A    between atoms: _431  and  _434
REMARK  182  A    between atoms: _434  and  _435
REMARK  183  A    between atoms: _438  and  _440
REMARK  184  A    between atoms: _440  and  _441
REMARK  185  A    between atoms: _443  and  _445
REMARK  186  A    between atoms: _445  and  _446
REMARK  187  A    between atoms: _448  and  _450
REMARK  188  A    between atoms: _450  and  _451
REMARK  189  A    between atoms: _450  and  _453
REMARK  190  A    between atoms: _453  and  _454
REMARK  191  A    between atoms: _460  and  _462
REMARK  192  A    between atoms: _462  and  _463
REMARK  193  A    between atoms: _462  and  _465
REMARK  194  A    between atoms: _465  and  _466
REMARK  195  A    between atoms: _469  and  _471
REMARK  196  A    between atoms: _471  and  _472
REMARK  197  A    between atoms: _471  and  _474
REMARK  198  A    between atoms: _477  and  _479
REMARK  199  A    between atoms: _479  and  _480
REMARK  200  A    between atoms: _479  and  _482
REMARK  201  A    between atoms: _482  and  _483
REMARK  202  A    between atoms: _487  and  _488
REMARK  203  A    between atoms: _493  and  _495
REMARK  204  A    between atoms: _495  and  _496
REMARK  205  A    between atoms: _495  and  _498
REMARK  206  A    between atoms: _498  and  _499
REMARK  207  A    between atoms: _503  and  _504
REMARK  208  A    between atoms: _509  and  _511
REMARK  209  A    between atoms: _511  and  _512
REMARK  210  A    between atoms: _511  and  _514
REMARK  211  A    between atoms: _517  and  _519
REMARK  212  A    between atoms: _519  and  _520
REMARK  213  A    between atoms: _519  and  _522
REMARK  214  A    between atoms: _522  and  _523
REMARK  215  A    between atoms: _528  and  _530
REMARK  216  A    between atoms: _530  and  _531
REMARK  217  A    between atoms: _530  and  _533
REMARK  218  A    between atoms: _533  and  _534
REMARK  219  A    between atoms: _537  and  _539
REMARK  220  A    between atoms: _539  and  _540
REMARK  221  A    between atoms: _539  and  _542
REMARK  222  A    between atoms: _542  and  _543
REMARK  223  A    between atoms: _546  and  _548
REMARK  224  A    between atoms: _548  and  _549
REMARK  225  A    between atoms: _551  and  _553
REMARK  226  A    between atoms: _553  and  _554
REMARK  227  A    between atoms: _553  and  _556
REMARK  228  A    between atoms: _556  and  _557
REMARK  229  A    between atoms: _557  and  _558
REMARK  230  A    between atoms: _558  and  _559
REMARK  231  A    between atoms: _568  and  _570
REMARK  232  A    between atoms: _570  and  _571
REMARK  233  A    between atoms: _570  and  _573
REMARK  234  A    between atoms: _573  and  _574
REMARK                            x       y       z     vdW  Elec       q    Type
REMARK                         _______ _______ _______ _____ _____    ______ ____
ROOT
ATOM      1  O   HOH     1      14.006 -26.388  -7.162  0.00  0.00    +0.000 OA
ENDROOT
TORSDOF 0
REMARK  Name = ../refined-set-2016/2o4s/2o4s_pocket.pdb
REMARK  234 active torsions:
REMARK  status: ('A' for Active; 'I' for Inactive)
REMARK    1  A    between atoms: _1  and  _3
REMARK    2  A    between atoms: _3  and  _4
REMARK    3  A    between atoms: _3  and  _6
REMARK    4  A    between atoms: _6  and  _7
REMARK    5  A    between atoms: _7  and  _8
REMARK    6  A    between atoms: _8  and  _9
REMARK    7  A    between atoms: _18  and  _20
REMARK    8  A    between atoms: _20  and  _21
REMARK    9  A    between atoms: _20  and  _23
REMARK   10  A    between atoms: _23  and  _24
REMARK   11  A    between atoms: _27  and  _29
REMARK   12  A    between atoms: _29  and  _30
REMARK   13  A    between atoms: _29  and  _32
REMARK   14  A    between atoms: _32  and  _33
REMARK   15  A    between atoms: _36  and  _38
REMARK   16  A    between atoms: _38  and  _39
REMARK   17  A    between atoms: _38  and  _41
REMARK   18  A    between atoms: _41  and  _42
REMARK   19  A    between atoms: _45  and  _47
REMARK   20  A    between atoms: _47  and  _48
REMARK   21  A    between atoms: _47  and  _50
REMARK   22  A    between atoms: _50  and  _51
REMARK   23  A    between atoms: _54  and  _56
REMARK   24  A    between atoms: _56  and  _57
REMARK   25  A    between atoms: _59  and  _61
REMARK   26  A    between atoms: _61  and  _62
REMARK   27  A    between atoms: _65  and  _67
REMARK   28  A    between atoms: _67  and  _68
REMARK   29  A    between atoms: _67  and  _70
REMARK   30  A    between atoms: _70  and  _71
REMARK   31  A    between atoms: _74  and  _76
REMARK   32  A    between atoms: _76  and  _77
REMARK   33  A    between atoms: _76  and  _79
REMARK   34  A    between atoms: _79  and  _80
REMARK   35  A    between atoms: _83  and  _85
REMARK   36  A    between atoms: _85  and  _86
REMARK   37  A    between atoms: _85  and  _88
REMARK   38  A    between atoms: _88  and  _89
REMARK   39  A    between atoms: _92  and  _94
REMARK   40  A    between atoms: _94  and  _95
REMARK   41  A    between atoms: _94  and  _97
REMARK   42  A    between atoms: _100  and  _102
REMARK   43  A    between atoms: _102  and  _103
REMARK   44  A    between atoms: _102  and  _105
REMARK   45  A    between atoms: _105  and  _106
REMARK   46  A    between atoms: _106  and  _107
REMARK   47  A    between atoms: _107  and  _108
REMARK   48  A    between atoms: _108  and  _109
REMARK   49  A    between atoms: _113  and  _115
REMARK   50  A    between atoms: _115  and  _116
REMARK   51  A    between atoms: _115  and  _118
REMARK   52  A    between atoms: _118  and  _119
REMARK   53  A    between atoms: _119  and  _120
REMARK   54  A    between atoms: _122  and  _124
REMARK   55  A    between atoms: _124  and  _125
REMARK   56  A    between atoms: _124  and  _127
REMARK   57  A    between atoms: _127  and  _128
REMARK   58  A    between atoms: _131  and  _133
REMARK   59  A    between atoms: _133  and  _134
REMARK   60  A    between atoms: _136  and  _138
REMARK   61  A    between atoms: _138  and  _139
REMARK   62  A    between atoms: _141  and  _143
REMARK   63  A    between atoms: _143  and  _144
REMARK   64  A    between atoms: _143  and  _146
REMARK   65  A    between atoms: _146  and  _147
REMARK   66  A    between atoms: _150  and  _152
REMARK   67  A    between atoms: _152  and  _153
REMARK   68  A    between atoms: _155  and  _157
REMARK   69  A    between atoms: _157  and  _158
REMARK   70  A    between atoms: _160  and  _162
REMARK   71  A    between atoms: _162  and  _163
REMARK   72  A    between atoms: _162  and  _165
REMARK   73  A    between atoms: _165  and  _166
REMARK   74  A    between atoms: _172  and  _174
REMARK   75  A    between atoms: _174  and  _175
REMARK   76  A    between atoms: _174  and  _177
REMARK   77  A    between atoms: _177  and  _178
REMARK   78  A    between atoms: _181  and  _183
REMARK   79  A    between atoms: _183  and  _184
REMARK   80  A    between atoms: _183  and  _186
REMARK   81  A    between atoms: _189  and  _191
REMARK   82  A    between atoms: _191  and  _192
REMARK   83  A    between atoms: _191  and  _194
REMARK   84  A    between atoms: _194  and  _195
REMARK   85  A    between atoms: _199  and  _200
REMARK   86  A    between atoms: _205  and  _207
REMARK   87  A    between atoms: _207  and  _208
REMARK   88  A    between atoms: _207  and  _210
REMARK   89  A    between atoms: _210  and  _211
REMARK   90  A    between atoms: _215  and  _216
REMARK   91  A    between atoms: _221  and  _223
REMARK   92  A    between atoms: _223  and  _224
REMARK   93  A    between atoms: _223  and  _226
REMARK   94  A    between atoms: _229  and  _231
REMARK   95  A    between atoms: _231  and  _232
REMARK   96  A    between atoms: _231  and  _234
REMARK   97  A    between atoms: _234  and  _235
REMARK   98  A    between atoms: _240  and  _242
REMARK   99  A    between atoms: _242  and  _243
REMARK  100  A    between atoms: _242  and  _245
REMARK  101  A    between atoms: _245  and  _246
REMARK  102  A    between atoms: _249  and  _251
REMARK  103  A    between atoms: _251  and  _252
REMARK  104  A    between atoms: _251  and  _254
REMARK  105  A    between atoms: _254  and  _255
REMARK  106  A    between atoms: _258  and  _260
REMARK  107  A    between atoms: _260  and  _261
REMARK  108  A    between atoms: _263  and  _265
REMARK  109  A    between atoms: _265  and  _266
REMARK  110  A    between atoms: _265  and  _268
REMARK  111  A    between atoms: _268  and  _269
REMARK  112  A    between atoms: _269  and  _270
REMARK  113  A    between atoms: _270  and  _271
REMARK  114  A    between atoms: _280  and  _282
REMARK  115  A    between atoms: _282  and  _283
REMARK  116  A    between atoms: _282  and  _285
REMARK  117  A    between atoms: _285  and  _286
REMARK  118  A    between atoms: _286  and  _287
REMARK  119  A    between atoms: _287  and  _288
REMARK  120  A    between atoms: _297  and  _299
REMARK  121  A    between atoms: _299  and  _300
REMARK  122  A    between atoms: _299  and  _302
REMARK  123  A    between atoms: _302  and  _303
REMARK  124  A    between atoms: _306  and  _308
REMARK  125  A    between atoms: _308  and  _309
REMARK  126  A    between atoms: _308  and  _311
REMARK  127  A    between atoms: _311  and  _312
REMARK  128  A    between atoms: _315  and  _317
REMARK  129  A    between atoms: _317  and  _318
REMARK  130  A    between atoms: _317  and  _320
REMARK  131  A    between atoms: _320  and  _321
REMARK  132  A    between atoms: _324  and  _326
REMARK  133  A    between atoms: _326  and  _327
REMARK  134  A    between atoms: _326  and  _329
REMARK  135  A    between atoms: _329  and  _330
REMARK  136  A    between atoms: _333  and  _335
REMARK  137  A    between atoms: _335  and  _336
REMARK  138  A    between atoms: _338  and  _340
REMARK  139  A    between atoms: _340  and  _341
REMARK  140  A    between atoms: _344  and  _346
REMARK  141  A    between atoms: _346  and  _347
REMARK  142  A    between atoms: _346  and  _349
REMARK  143  A    between atoms: _349  and  _350
REMARK  144  A    between atoms: _353  and  _355
REMARK  145  A    between atoms: _355  and  _356
REMARK  146  A    between atoms: _355  and  _358
REMARK  147  A    between atoms: _358  and  _359
REMARK  148  A    between atoms: _362  and  _364
REMARK  149  A    between atoms: _364  and  _365
REMARK  150  A    between atoms: _364  and  _367
REMARK  151  A    between atoms: _367  and  _368
REMARK  152  A    between atoms: _371  and  _373
REMARK  153  A    between atoms: _373  and  _374
REMARK  154  A    between atoms: _373  and  _376
REMARK  155  A    between atoms: _379  and  _381
REMARK  156  A    between atoms: _381  and  _382
REMARK  157  A    between atoms: _381  and  _384
REMARK  158  A    between atoms: _384  and  _385
REMARK  159  A    between atoms: _388  and  _390
REMARK  160  A    between atoms: _390  and  _391
REMARK  161  A    between atoms: _390  and  _393
REMARK  162  A    between atoms: _393  and  _394
REMARK  163  A    between atoms: _394  and  _395
REMARK  164  A    between atoms: _395  and  _396
REMARK  165  A    between atoms: _396  and  _397
REMARK  166  A    between atoms: _401  and  _403
REMARK  167  A    between atoms: _403  and  _404
REMARK  168  A    between atoms: _403  and  _406
REMARK  169  A    between atoms: _406  and  _407
REMARK  170  A    between atoms: _407  and  _408
REMARK  171  A    between atoms: _410  and  _412
REMARK  172  A    between atoms: _412  and  _413
REMARK  173  A    between atoms: _412  and  _415
REMARK  174  A    between atoms: _415  and  _416
REMARK  175  A    between atoms: _419  and  _421
REMARK  176  A    between atoms: _421  and  _422
REMARK  177  A    between atoms: _424  and  _426
REMARK  178  A    between atoms: _426  and  _427
REMARK  179  A    between atoms: _429  and  _431
REMARK  180  A    between atoms: _431  and  _432
REMARK  181  A    between atoms: _431  and  _434
REMARK  182  A    between atoms: _434  and  _435
REMARK  183  A    between atoms: _438  and  _440
REMARK  184  A    between atoms: _440  and  _441
REMARK  185  A    between atoms: _443  and  _445
REMARK  186  A    between atoms: _445  and  _446
REMARK  187  A    between atoms: _448  and  _450
REMARK  188  A    between atoms: _450  and  _451
REMARK  189  A    between atoms: _450  and  _453
REMARK  190  A    between atoms: _453  and  _454
REMARK  191  A    between atoms: _460  and  _462
REMARK  192  A    between atoms: _462  and  _463
REMARK  193  A    between atoms: _462  and  _465
REMARK  194  A    between atoms: _465  and  _466
REMARK  195  A    between atoms: _469  and  _471
REMARK  196  A    between atoms: _471  and  _472
REMARK  197  A    between atoms: _471  and  _474
REMARK  198  A    between atoms: _477  and  _479
REMARK  199  A    between atoms: _479  and  _480
REMARK  200  A    between atoms: _479  and  _482
REMARK  201  A    between atoms: _482  and  _483
REMARK  202  A    between atoms: _487  and  _488
REMARK  203  A    between atoms: _493  and  _495
REMARK  204  A    between atoms: _495  and  _496
REMARK  205  A    between atoms: _495  and  _498
REMARK  206  A    between atoms: _498  and  _499
REMARK  207  A    between atoms: _503  and  _504
REMARK  208  A    between atoms: _509  and  _511
REMARK  209  A    between atoms: _511  and  _512
REMARK  210  A    between atoms: _511  and  _514
REMARK  211  A    between atoms: _517  and  _519
REMARK  212  A    between atoms: _519  and  _520
REMARK  213  A    between atoms: _519  and  _522
REMARK  214  A    between atoms: _522  and  _523
REMARK  215  A    between atoms: _528  and  _530
REMARK  216  A    between atoms: _530  and  _531
REMARK  217  A    between atoms: _530  and  _533
REMARK  218  A    between atoms: _533  and  _534
REMARK  219  A    between atoms: _537  and  _539
REMARK  220  A    between atoms: _539  and  _540
REMARK  221  A    between atoms: _539  and  _542
REMARK  222  A    between atoms: _542  and  _543
REMARK  223  A    between atoms: _546  and  _548
REMARK  224  A    between atoms: _548  and  _549
REMARK  225  A    between atoms: _551  and  _553
REMARK  226  A    between atoms: _553  and  _554
REMARK  227  A    between atoms: _553  and  _556
REMARK  228  A    between atoms: _556  and  _557
REMARK  229  A    between atoms: _557  and  _558
REMARK  230  A    between atoms: _558  and  _559
REMARK  231  A    between atoms: _568  and  _570
REMARK  232  A    between atoms: _570  and  _571
REMARK  233  A    between atoms: _570  and  _573
REMARK  234  A    between atoms: _573  and  _574
REMARK                            x       y       z     vdW  Elec       q    Type
REMARK                         _______ _______ _______ _____ _____    ______ ____
ROOT
ATOM      1  O   HOH     1      22.287 -20.872 -11.529  0.00  0.00    +0.000 OA
ENDROOT
TORSDOF 0
REMARK  Name = ../refined-set-2016/2o4s/2o4s_pocket.pdb
REMARK  234 active torsions:
REMARK  status: ('A' for Active; 'I' for Inactive)
REMARK    1  A    between atoms: _1  and  _3
REMARK    2  A    between atoms: _3  and  _4
REMARK    3  A    between atoms: _3  and  _6
REMARK    4  A    between atoms: _6  and  _7
REMARK    5  A    between atoms: _7  and  _8
REMARK    6  A    between atoms: _8  and  _9
REMARK    7  A    between atoms: _18  and  _20
REMARK    8  A    between atoms: _20  and  _21
REMARK    9  A    between atoms: _20  and  _23
REMARK   10  A    between atoms: _23  and  _24
REMARK   11  A    between atoms: _27  and  _29
REMARK   12  A    between atoms: _29  and  _30
REMARK   13  A    between atoms: _29  and  _32
REMARK   14  A    between atoms: _32  and  _33
REMARK   15  A    between atoms: _36  and  _38
REMARK   16  A    between atoms: _38  and  _39
REMARK   17  A    between atoms: _38  and  _41
REMARK   18  A    between atoms: _41  and  _42
REMARK   19  A    between atoms: _45  and  _47
REMARK   20  A    between atoms: _47  and  _48
REMARK   21  A    between atoms: _47  and  _50
REMARK   22  A    between atoms: _50  and  _51
REMARK   23  A    between atoms: _54  and  _56
REMARK   24  A    between atoms: _56  and  _57
REMARK   25  A    between atoms: _59  and  _61
REMARK   26  A    between atoms: _61  and  _62
REMARK   27  A    between atoms: _65  and  _67
REMARK   28  A    between atoms: _67  and  _68
REMARK   29  A    between atoms: _67  and  _70
REMARK   30  A    between atoms: _70  and  _71
REMARK   31  A    between atoms: _74  and  _76
REMARK   32  A    between atoms: _76  and  _77
REMARK   33  A    between atoms: _76  and  _79
REMARK   34  A    between atoms: _79  and  _80
REMARK   35  A    between atoms: _83  and  _85
REMARK   36  A    between atoms: _85  and  _86
REMARK   37  A    between atoms: _85  and  _88
REMARK   38  A    between atoms: _88  and  _89
REMARK   39  A    between atoms: _92  and  _94
REMARK   40  A    between atoms: _94  and  _95
REMARK   41  A    between atoms: _94  and  _97
REMARK   42  A    between atoms: _100  and  _102
REMARK   43  A    between atoms: _102  and  _103
REMARK   44  A    between atoms: _102  and  _105
REMARK   45  A    between atoms: _105  and  _106
REMARK   46  A    between atoms: _106  and  _107
REMARK   47  A    between atoms: _107  and  _108
REMARK   48  A    between atoms: _108  and  _109
REMARK   49  A    between atoms: _113  and  _115
REMARK   50  A    between atoms: _115  and  _116
REMARK   51  A    between atoms: _115  and  _118
REMARK   52  A    between atoms: _118  and  _119
REMARK   53  A    between atoms: _119  and  _120
REMARK   54  A    between atoms: _122  and  _124
REMARK   55  A    between atoms: _124  and  _125
REMARK   56  A    between atoms: _124  and  _127
REMARK   57  A    between atoms: _127  and  _128
REMARK   58  A    between atoms: _131  and  _133
REMARK   59  A    between atoms: _133  and  _134
REMARK   60  A    between atoms: _136  and  _138
REMARK   61  A    between atoms: _138  and  _139
REMARK   62  A    between atoms: _141  and  _143
REMARK   63  A    between atoms: _143  and  _144
REMARK   64  A    between atoms: _143  and  _146
REMARK   65  A    between atoms: _146  and  _147
REMARK   66  A    between atoms: _150  and  _152
REMARK   67  A    between atoms: _152  and  _153
REMARK   68  A    between atoms: _155  and  _157
REMARK   69  A    between atoms: _157  and  _158
REMARK   70  A    between atoms: _160  and  _162
REMARK   71  A    between atoms: _162  and  _163
REMARK   72  A    between atoms: _162  and  _165
REMARK   73  A    between atoms: _165  and  _166
REMARK   74  A    between atoms: _172  and  _174
REMARK   75  A    between atoms: _174  and  _175
REMARK   76  A    between atoms: _174  and  _177
REMARK   77  A    between atoms: _177  and  _178
REMARK   78  A    between atoms: _181  and  _183
REMARK   79  A    between atoms: _183  and  _184
REMARK   80  A    between atoms: _183  and  _186
REMARK   81  A    between atoms: _189  and  _191
REMARK   82  A    between atoms: _191  and  _192
REMARK   83  A    between atoms: _191  and  _194
REMARK   84  A    between atoms: _194  and  _195
REMARK   85  A    between atoms: _199  and  _200
REMARK   86  A    between atoms: _205  and  _207
REMARK   87  A    between atoms: _207  and  _208
REMARK   88  A    between atoms: _207  and  _210
REMARK   89  A    between atoms: _210  and  _211
REMARK   90  A    between atoms: _215  and  _216
REMARK   91  A    between atoms: _221  and  _223
REMARK   92  A    between atoms: _223  and  _224
REMARK   93  A    between atoms: _223  and  _226
REMARK   94  A    between atoms: _229  and  _231
REMARK   95  A    between atoms: _231  and  _232
REMARK   96  A    between atoms: _231  and  _234
REMARK   97  A    between atoms: _234  and  _235
REMARK   98  A    between atoms: _240  and  _242
REMARK   99  A    between atoms: _242  and  _243
REMARK  100  A    between atoms: _242  and  _245
REMARK  101  A    between atoms: _245  and  _246
REMARK  102  A    between atoms: _249  and  _251
REMARK  103  A    between atoms: _251  and  _252
REMARK  104  A    between atoms: _251  and  _254
REMARK  105  A    between atoms: _254  and  _255
REMARK  106  A    between atoms: _258  and  _260
REMARK  107  A    between atoms: _260  and  _261
REMARK  108  A    between atoms: _263  and  _265
REMARK  109  A    between atoms: _265  and  _266
REMARK  110  A    between atoms: _265  and  _268
REMARK  111  A    between atoms: _268  and  _269
REMARK  112  A    between atoms: _269  and  _270
REMARK  113  A    between atoms: _270  and  _271
REMARK  114  A    between atoms: _280  and  _282
REMARK  115  A    between atoms: _282  and  _283
REMARK  116  A    between atoms: _282  and  _285
REMARK  117  A    between atoms: _285  and  _286
REMARK  118  A    between atoms: _286  and  _287
REMARK  119  A    between atoms: _287  and  _288
REMARK  120  A    between atoms: _297  and  _299
REMARK  121  A    between atoms: _299  and  _300
REMARK  122  A    between atoms: _299  and  _302
REMARK  123  A    between atoms: _302  and  _303
REMARK  124  A    between atoms: _306  and  _308
REMARK  125  A    between atoms: _308  and  _309
REMARK  126  A    between atoms: _308  and  _311
REMARK  127  A    between atoms: _311  and  _312
REMARK  128  A    between atoms: _315  and  _317
REMARK  129  A    between atoms: _317  and  _318
REMARK  130  A    between atoms: _317  and  _320
REMARK  131  A    between atoms: _320  and  _321
REMARK  132  A    between atoms: _324  and  _326
REMARK  133  A    between atoms: _326  and  _327
REMARK  134  A    between atoms: _326  and  _329
REMARK  135  A    between atoms: _329  and  _330
REMARK  136  A    between atoms: _333  and  _335
REMARK  137  A    between atoms: _335  and  _336
REMARK  138  A    between atoms: _338  and  _340
REMARK  139  A    between atoms: _340  and  _341
REMARK  140  A    between atoms: _344  and  _346
REMARK  141  A    between atoms: _346  and  _347
REMARK  142  A    between atoms: _346  and  _349
REMARK  143  A    between atoms: _349  and  _350
REMARK  144  A    between atoms: _353  and  _355
REMARK  145  A    between atoms: _355  and  _356
REMARK  146  A    between atoms: _355  and  _358
REMARK  147  A    between atoms: _358  and  _359
REMARK  148  A    between atoms: _362  and  _364
REMARK  149  A    between atoms: _364  and  _365
REMARK  150  A    between atoms: _364  and  _367
REMARK  151  A    between atoms: _367  and  _368
REMARK  152  A    between atoms: _371  and  _373
REMARK  153  A    between atoms: _373  and  _374
REMARK  154  A    between atoms: _373  and  _376
REMARK  155  A    between atoms: _379  and  _381
REMARK  156  A    between atoms: _381  and  _382
REMARK  157  A    between atoms: _381  and  _384
REMARK  158  A    between atoms: _384  and  _385
REMARK  159  A    between atoms: _388  and  _390
REMARK  160  A    between atoms: _390  and  _391
REMARK  161  A    between atoms: _390  and  _393
REMARK  162  A    between atoms: _393  and  _394
REMARK  163  A    between atoms: _394  and  _395
REMARK  164  A    between atoms: _395  and  _396
REMARK  165  A    between atoms: _396  and  _397
REMARK  166  A    between atoms: _401  and  _403
REMARK  167  A    between atoms: _403  and  _404
REMARK  168  A    between atoms: _403  and  _406
REMARK  169  A    between atoms: _406  and  _407
REMARK  170  A    between atoms: _407  and  _408
REMARK  171  A    between atoms: _410  and  _412
REMARK  172  A    between atoms: _412  and  _413
REMARK  173  A    between atoms: _412  and  _415
REMARK  174  A    between atoms: _415  and  _416
REMARK  175  A    between atoms: _419  and  _421
REMARK  176  A    between atoms: _421  and  _422
REMARK  177  A    between atoms: _424  and  _426
REMARK  178  A    between atoms: _426  and  _427
REMARK  179  A    between atoms: _429  and  _431
REMARK  180  A    between atoms: _431  and  _432
REMARK  181  A    between atoms: _431  and  _434
REMARK  182  A    between atoms: _434  and  _435
REMARK  183  A    between atoms: _438  and  _440
REMARK  184  A    between atoms: _440  and  _441
REMARK  185  A    between atoms: _443  and  _445
REMARK  186  A    between atoms: _445  and  _446
REMARK  187  A    between atoms: _448  and  _450
REMARK  188  A    between atoms: _450  and  _451
REMARK  189  A    between atoms: _450  and  _453
REMARK  190  A    between atoms: _453  and  _454
REMARK  191  A    between atoms: _460  and  _462
REMARK  192  A    between atoms: _462  and  _463
REMARK  193  A    between atoms: _462  and  _465
REMARK  194  A    between atoms: _465  and  _466
REMARK  195  A    between atoms: _469  and  _471
REMARK  196  A    between atoms: _471  and  _472
REMARK  197  A    between atoms: _471  and  _474
REMARK  198  A    between atoms: _477  and  _479
REMARK  199  A    between atoms: _479  and  _480
REMARK  200  A    between atoms: _479  and  _482
REMARK  201  A    between atoms: _482  and  _483
REMARK  202  A    between atoms: _487  and  _488
REMARK  203  A    between atoms: _493  and  _495
REMARK  204  A    between atoms: _495  and  _496
REMARK  205  A    between atoms: _495  and  _498
REMARK  206  A    between atoms: _498  and  _499
REMARK  207  A    between atoms: _503  and  _504
REMARK  208  A    between atoms: _509  and  _511
REMARK  209  A    between atoms: _511  and  _512
REMARK  210  A    between atoms: _511  and  _514
REMARK  211  A    between atoms: _517  and  _519
REMARK  212  A    between atoms: _519  and  _520
REMARK  213  A    between atoms: _519  and  _522
REMARK  214  A    between atoms: _522  and  _523
REMARK  215  A    between atoms: _528  and  _530
REMARK  216  A    between atoms: _530  and  _531
REMARK  217  A    between atoms: _530  and  _533
REMARK  218  A    between atoms: _533  and  _534
REMARK  219  A    between atoms: _537  and  _539
REMARK  220  A    between atoms: _539  and  _540
REMARK  221  A    between atoms: _539  and  _542
REMARK  222  A    between atoms: _542  and  _543
REMARK  223  A    between atoms: _546  and  _548
REMARK  224  A    between atoms: _548  and  _549
REMARK  225  A    between atoms: _551  and  _553
REMARK  226  A    between atoms: _553  and  _554
REMARK  227  A    between atoms: _553  and  _556
REMARK  228  A    between atoms: _556  and  _557
REMARK  229  A    between atoms: _557  and  _558
REMARK  230  A    between atoms: _558  and  _559
REMARK  231  A    between atoms: _568  and  _570
REMARK  232  A    between atoms: _570  and  _571
REMARK  233  A    between atoms: _570  and  _573
REMARK  234  A    between atoms: _573  and  _574
REMARK                            x       y       z     vdW  Elec       q    Type
REMARK                         _______ _______ _______ _____ _____    ______ ____
ROOT
ATOM      1  O   HOH     1       5.532  -8.705 -18.674  0.00  0.00    +0.000 OA
ENDROOT
TORSDOF 0
REMARK  Name = ../refined-set-2016/2o4s/2o4s_pocket.pdb
REMARK  234 active torsions:
REMARK  status: ('A' for Active; 'I' for Inactive)
REMARK    1  A    between atoms: _1  and  _3
REMARK    2  A    between atoms: _3  and  _4
REMARK    3  A    between atoms: _3  and  _6
REMARK    4  A    between atoms: _6  and  _7
REMARK    5  A    between atoms: _7  and  _8
REMARK    6  A    between atoms: _8  and  _9
REMARK    7  A    between atoms: _18  and  _20
REMARK    8  A    between atoms: _20  and  _21
REMARK    9  A    between atoms: _20  and  _23
REMARK   10  A    between atoms: _23  and  _24
REMARK   11  A    between atoms: _27  and  _29
REMARK   12  A    between atoms: _29  and  _30
REMARK   13  A    between atoms: _29  and  _32
REMARK   14  A    between atoms: _32  and  _33
REMARK   15  A    between atoms: _36  and  _38
REMARK   16  A    between atoms: _38  and  _39
REMARK   17  A    between atoms: _38  and  _41
REMARK   18  A    between atoms: _41  and  _42
REMARK   19  A    between atoms: _45  and  _47
REMARK   20  A    between atoms: _47  and  _48
REMARK   21  A    between atoms: _47  and  _50
REMARK   22  A    between atoms: _50  and  _51
REMARK   23  A    between atoms: _54  and  _56
REMARK   24  A    between atoms: _56  and  _57
REMARK   25  A    between atoms: _59  and  _61
REMARK   26  A    between atoms: _61  and  _62
REMARK   27  A    between atoms: _65  and  _67
REMARK   28  A    between atoms: _67  and  _68
REMARK   29  A    between atoms: _67  and  _70
REMARK   30  A    between atoms: _70  and  _71
REMARK   31  A    between atoms: _74  and  _76
REMARK   32  A    between atoms: _76  and  _77
REMARK   33  A    between atoms: _76  and  _79
REMARK   34  A    between atoms: _79  and  _80
REMARK   35  A    between atoms: _83  and  _85
REMARK   36  A    between atoms: _85  and  _86
REMARK   37  A    between atoms: _85  and  _88
REMARK   38  A    between atoms: _88  and  _89
REMARK   39  A    between atoms: _92  and  _94
REMARK   40  A    between atoms: _94  and  _95
REMARK   41  A    between atoms: _94  and  _97
REMARK   42  A    between atoms: _100  and  _102
REMARK   43  A    between atoms: _102  and  _103
REMARK   44  A    between atoms: _102  and  _105
REMARK   45  A    between atoms: _105  and  _106
REMARK   46  A    between atoms: _106  and  _107
REMARK   47  A    between atoms: _107  and  _108
REMARK   48  A    between atoms: _108  and  _109
REMARK   49  A    between atoms: _113  and  _115
REMARK   50  A    between atoms: _115  and  _116
REMARK   51  A    between atoms: _115  and  _118
REMARK   52  A    between atoms: _118  and  _119
REMARK   53  A    between atoms: _119  and  _120
REMARK   54  A    between atoms: _122  and  _124
REMARK   55  A    between atoms: _124  and  _125
REMARK   56  A    between atoms: _124  and  _127
REMARK   57  A    between atoms: _127  and  _128
REMARK   58  A    between atoms: _131  and  _133
REMARK   59  A    between atoms: _133  and  _134
REMARK   60  A    between atoms: _136  and  _138
REMARK   61  A    between atoms: _138  and  _139
REMARK   62  A    between atoms: _141  and  _143
REMARK   63  A    between atoms: _143  and  _144
REMARK   64  A    between atoms: _143  and  _146
REMARK   65  A    between atoms: _146  and  _147
REMARK   66  A    between atoms: _150  and  _152
REMARK   67  A    between atoms: _152  and  _153
REMARK   68  A    between atoms: _155  and  _157
REMARK   69  A    between atoms: _157  and  _158
REMARK   70  A    between atoms: _160  and  _162
REMARK   71  A    between atoms: _162  and  _163
REMARK   72  A    between atoms: _162  and  _165
REMARK   73  A    between atoms: _165  and  _166
REMARK   74  A    between atoms: _172  and  _174
REMARK   75  A    between atoms: _174  and  _175
REMARK   76  A    between atoms: _174  and  _177
REMARK   77  A    between atoms: _177  and  _178
REMARK   78  A    between atoms: _181  and  _183
REMARK   79  A    between atoms: _183  and  _184
REMARK   80  A    between atoms: _183  and  _186
REMARK   81  A    between atoms: _189  and  _191
REMARK   82  A    between atoms: _191  and  _192
REMARK   83  A    between atoms: _191  and  _194
REMARK   84  A    between atoms: _194  and  _195
REMARK   85  A    between atoms: _199  and  _200
REMARK   86  A    between atoms: _205  and  _207
REMARK   87  A    between atoms: _207  and  _208
REMARK   88  A    between atoms: _207  and  _210
REMARK   89  A    between atoms: _210  and  _211
REMARK   90  A    between atoms: _215  and  _216
REMARK   91  A    between atoms: _221  and  _223
REMARK   92  A    between atoms: _223  and  _224
REMARK   93  A    between atoms: _223  and  _226
REMARK   94  A    between atoms: _229  and  _231
REMARK   95  A    between atoms: _231  and  _232
REMARK   96  A    between atoms: _231  and  _234
REMARK   97  A    between atoms: _234  and  _235
REMARK   98  A    between atoms: _240  and  _242
REMARK   99  A    between atoms: _242  and  _243
REMARK  100  A    between atoms: _242  and  _245
REMARK  101  A    between atoms: _245  and  _246
REMARK  102  A    between atoms: _249  and  _251
REMARK  103  A    between atoms: _251  and  _252
REMARK  104  A    between atoms: _251  and  _254
REMARK  105  A    between atoms: _254  and  _255
REMARK  106  A    between atoms: _258  and  _260
REMARK  107  A    between atoms: _260  and  _261
REMARK  108  A    between atoms: _263  and  _265
REMARK  109  A    between atoms: _265  and  _266
REMARK  110  A    between atoms: _265  and  _268
REMARK  111  A    between atoms: _268  and  _269
REMARK  112  A    between atoms: _269  and  _270
REMARK  113  A    between atoms: _270  and  _271
REMARK  114  A    between atoms: _280  and  _282
REMARK  115  A    between atoms: _282  and  _283
REMARK  116  A    between atoms: _282  and  _285
REMARK  117  A    between atoms: _285  and  _286
REMARK  118  A    between atoms: _286  and  _287
REMARK  119  A    between atoms: _287  and  _288
REMARK  120  A    between atoms: _297  and  _299
REMARK  121  A    between atoms: _299  and  _300
REMARK  122  A    between atoms: _299  and  _302
REMARK  123  A    between atoms: _302  and  _303
REMARK  124  A    between atoms: _306  and  _308
REMARK  125  A    between atoms: _308  and  _309
REMARK  126  A    between atoms: _308  and  _311
REMARK  127  A    between atoms: _311  and  _312
REMARK  128  A    between atoms: _315  and  _317
REMARK  129  A    between atoms: _317  and  _318
REMARK  130  A    between atoms: _317  and  _320
REMARK  131  A    between atoms: _320  and  _321
REMARK  132  A    between atoms: _324  and  _326
REMARK  133  A    between atoms: _326  and  _327
REMARK  134  A    between atoms: _326  and  _329
REMARK  135  A    between atoms: _329  and  _330
REMARK  136  A    between atoms: _333  and  _335
REMARK  137  A    between atoms: _335  and  _336
REMARK  138  A    between atoms: _338  and  _340
REMARK  139  A    between atoms: _340  and  _341
REMARK  140  A    between atoms: _344  and  _346
REMARK  141  A    between atoms: _346  and  _347
REMARK  142  A    between atoms: _346  and  _349
REMARK  143  A    between atoms: _349  and  _350
REMARK  144  A    between atoms: _353  and  _355
REMARK  145  A    between atoms: _355  and  _356
REMARK  146  A    between atoms: _355  and  _358
REMARK  147  A    between atoms: _358  and  _359
REMARK  148  A    between atoms: _362  and  _364
REMARK  149  A    between atoms: _364  and  _365
REMARK  150  A    between atoms: _364  and  _367
REMARK  151  A    between atoms: _367  and  _368
REMARK  152  A    between atoms: _371  and  _373
REMARK  153  A    between atoms: _373  and  _374
REMARK  154  A    between atoms: _373  and  _376
REMARK  155  A    between atoms: _379  and  _381
REMARK  156  A    between atoms: _381  and  _382
REMARK  157  A    between atoms: _381  and  _384
REMARK  158  A    between atoms: _384  and  _385
REMARK  159  A    between atoms: _388  and  _390
REMARK  160  A    between atoms: _390  and  _391
REMARK  161  A    between atoms: _390  and  _393
REMARK  162  A    between atoms: _393  and  _394
REMARK  163  A    between atoms: _394  and  _395
REMARK  164  A    between atoms: _395  and  _396
REMARK  165  A    between atoms: _396  and  _397
REMARK  166  A    between atoms: _401  and  _403
REMARK  167  A    between atoms: _403  and  _404
REMARK  168  A    between atoms: _403  and  _406
REMARK  169  A    between atoms: _406  and  _407
REMARK  170  A    between atoms: _407  and  _408
REMARK  171  A    between atoms: _410  and  _412
REMARK  172  A    between atoms: _412  and  _413
REMARK  173  A    between atoms: _412  and  _415
REMARK  174  A    between atoms: _415  and  _416
REMARK  175  A    between atoms: _419  and  _421
REMARK  176  A    between atoms: _421  and  _422
REMARK  177  A    between atoms: _424  and  _426
REMARK  178  A    between atoms: _426  and  _427
REMARK  179  A    between atoms: _429  and  _431
REMARK  180  A    between atoms: _431  and  _432
REMARK  181  A    between atoms: _431  and  _434
REMARK  182  A    between atoms: _434  and  _435
REMARK  183  A    between atoms: _438  and  _440
REMARK  184  A    between atoms: _440  and  _441
REMARK  185  A    between atoms: _443  and  _445
REMARK  186  A    between atoms: _445  and  _446
REMARK  187  A    between atoms: _448  and  _450
REMARK  188  A    between atoms: _450  and  _451
REMARK  189  A    between atoms: _450  and  _453
REMARK  190  A    between atoms: _453  and  _454
REMARK  191  A    between atoms: _460  and  _462
REMARK  192  A    between atoms: _462  and  _463
REMARK  193  A    between atoms: _462  and  _465
REMARK  194  A    between atoms: _465  and  _466
REMARK  195  A    between atoms: _469  and  _471
REMARK  196  A    between atoms: _471  and  _472
REMARK  197  A    between atoms: _471  and  _474
REMARK  198  A    between atoms: _477  and  _479
REMARK  199  A    between atoms: _479  and  _480
REMARK  200  A    between atoms: _479  and  _482
REMARK  201  A    between atoms: _482  and  _483
REMARK  202  A    between atoms: _487  and  _488
REMARK  203  A    between atoms: _493  and  _495
REMARK  204  A    between atoms: _495  and  _496
REMARK  205  A    between atoms: _495  and  _498
REMARK  206  A    between atoms: _498  and  _499
REMARK  207  A    between atoms: _503  and  _504
REMARK  208  A    between atoms: _509  and  _511
REMARK  209  A    between atoms: _511  and  _512
REMARK  210  A    between atoms: _511  and  _514
REMARK  211  A    between atoms: _517  and  _519
REMARK  212  A    between atoms: _519  and  _520
REMARK  213  A    between atoms: _519  and  _522
REMARK  214  A    between atoms: _522  and  _523
REMARK  215  A    between atoms: _528  and  _530
REMARK  216  A    between atoms: _530  and  _531
REMARK  217  A    between atoms: _530  and  _533
REMARK  218  A    between atoms: _533  and  _534
REMARK  219  A    between atoms: _537  and  _539
REMARK  220  A    between atoms: _539  and  _540
REMARK  221  A    between atoms: _539  and  _542
REMARK  222  A    between atoms: _542  and  _543
REMARK  223  A    between atoms: _546  and  _548
REMARK  224  A    between atoms: _548  and  _549
REMARK  225  A    between atoms: _551  and  _553
REMARK  226  A    between atoms: _553  and  _554
REMARK  227  A    between atoms: _553  and  _556
REMARK  228  A    between atoms: _556  and  _557
REMARK  229  A    between atoms: _557  and  _558
REMARK  230  A    between atoms: _558  and  _559
REMARK  231  A    between atoms: _568  and  _570
REMARK  232  A    between atoms: _570  and  _571
REMARK  233  A    between atoms: _570  and  _573
REMARK  234  A    between atoms: _573  and  _574
REMARK                            x       y       z     vdW  Elec       q    Type
REMARK                         _______ _______ _______ _____ _____    ______ ____
ROOT
ATOM      1  O   HOH     1       4.696  -9.746 -16.111  0.00  0.00    +0.000 OA
ENDROOT
TORSDOF 0
REMARK  Name = ../refined-set-2016/2o4s/2o4s_pocket.pdb
REMARK  234 active torsions:
REMARK  status: ('A' for Active; 'I' for Inactive)
REMARK    1  A    between atoms: _1  and  _3
REMARK    2  A    between atoms: _3  and  _4
REMARK    3  A    between atoms: _3  and  _6
REMARK    4  A    between atoms: _6  and  _7
REMARK    5  A    between atoms: _7  and  _8
REMARK    6  A    between atoms: _8  and  _9
REMARK    7  A    between atoms: _18  and  _20
REMARK    8  A    between atoms: _20  and  _21
REMARK    9  A    between atoms: _20  and  _23
REMARK   10  A    between atoms: _23  and  _24
REMARK   11  A    between atoms: _27  and  _29
REMARK   12  A    between atoms: _29  and  _30
REMARK   13  A    between atoms: _29  and  _32
REMARK   14  A    between atoms: _32  and  _33
REMARK   15  A    between atoms: _36  and  _38
REMARK   16  A    between atoms: _38  and  _39
REMARK   17  A    between atoms: _38  and  _41
REMARK   18  A    between atoms: _41  and  _42
REMARK   19  A    between atoms: _45  and  _47
REMARK   20  A    between atoms: _47  and  _48
REMARK   21  A    between atoms: _47  and  _50
REMARK   22  A    between atoms: _50  and  _51
REMARK   23  A    between atoms: _54  and  _56
REMARK   24  A    between atoms: _56  and  _57
REMARK   25  A    between atoms: _59  and  _61
REMARK   26  A    between atoms: _61  and  _62
REMARK   27  A    between atoms: _65  and  _67
REMARK   28  A    between atoms: _67  and  _68
REMARK   29  A    between atoms: _67  and  _70
REMARK   30  A    between atoms: _70  and  _71
REMARK   31  A    between atoms: _74  and  _76
REMARK   32  A    between atoms: _76  and  _77
REMARK   33  A    between atoms: _76  and  _79
REMARK   34  A    between atoms: _79  and  _80
REMARK   35  A    between atoms: _83  and  _85
REMARK   36  A    between atoms: _85  and  _86
REMARK   37  A    between atoms: _85  and  _88
REMARK   38  A    between atoms: _88  and  _89
REMARK   39  A    between atoms: _92  and  _94
REMARK   40  A    between atoms: _94  and  _95
REMARK   41  A    between atoms: _94  and  _97
REMARK   42  A    between atoms: _100  and  _102
REMARK   43  A    between atoms: _102  and  _103
REMARK   44  A    between atoms: _102  and  _105
REMARK   45  A    between atoms: _105  and  _106
REMARK   46  A    between atoms: _106  and  _107
REMARK   47  A    between atoms: _107  and  _108
REMARK   48  A    between atoms: _108  and  _109
REMARK   49  A    between atoms: _113  and  _115
REMARK   50  A    between atoms: _115  and  _116
REMARK   51  A    between atoms: _115  and  _118
REMARK   52  A    between atoms: _118  and  _119
REMARK   53  A    between atoms: _119  and  _120
REMARK   54  A    between atoms: _122  and  _124
REMARK   55  A    between atoms: _124  and  _125
REMARK   56  A    between atoms: _124  and  _127
REMARK   57  A    between atoms: _127  and  _128
REMARK   58  A    between atoms: _131  and  _133
REMARK   59  A    between atoms: _133  and  _134
REMARK   60  A    between atoms: _136  and  _138
REMARK   61  A    between atoms: _138  and  _139
REMARK   62  A    between atoms: _141  and  _143
REMARK   63  A    between atoms: _143  and  _144
REMARK   64  A    between atoms: _143  and  _146
REMARK   65  A    between atoms: _146  and  _147
REMARK   66  A    between atoms: _150  and  _152
REMARK   67  A    between atoms: _152  and  _153
REMARK   68  A    between atoms: _155  and  _157
REMARK   69  A    between atoms: _157  and  _158
REMARK   70  A    between atoms: _160  and  _162
REMARK   71  A    between atoms: _162  and  _163
REMARK   72  A    between atoms: _162  and  _165
REMARK   73  A    between atoms: _165  and  _166
REMARK   74  A    between atoms: _172  and  _174
REMARK   75  A    between atoms: _174  and  _175
REMARK   76  A    between atoms: _174  and  _177
REMARK   77  A    between atoms: _177  and  _178
REMARK   78  A    between atoms: _181  and  _183
REMARK   79  A    between atoms: _183  and  _184
REMARK   80  A    between atoms: _183  and  _186
REMARK   81  A    between atoms: _189  and  _191
REMARK   82  A    between atoms: _191  and  _192
REMARK   83  A    between atoms: _191  and  _194
REMARK   84  A    between atoms: _194  and  _195
REMARK   85  A    between atoms: _199  and  _200
REMARK   86  A    between atoms: _205  and  _207
REMARK   87  A    between atoms: _207  and  _208
REMARK   88  A    between atoms: _207  and  _210
REMARK   89  A    between atoms: _210  and  _211
REMARK   90  A    between atoms: _215  and  _216
REMARK   91  A    between atoms: _221  and  _223
REMARK   92  A    between atoms: _223  and  _224
REMARK   93  A    between atoms: _223  and  _226
REMARK   94  A    between atoms: _229  and  _231
REMARK   95  A    between atoms: _231  and  _232
REMARK   96  A    between atoms: _231  and  _234
REMARK   97  A    between atoms: _234  and  _235
REMARK   98  A    between atoms: _240  and  _242
REMARK   99  A    between atoms: _242  and  _243
REMARK  100  A    between atoms: _242  and  _245
REMARK  101  A    between atoms: _245  and  _246
REMARK  102  A    between atoms: _249  and  _251
REMARK  103  A    between atoms: _251  and  _252
REMARK  104  A    between atoms: _251  and  _254
REMARK  105  A    between atoms: _254  and  _255
REMARK  106  A    between atoms: _258  and  _260
REMARK  107  A    between atoms: _260  and  _261
REMARK  108  A    between atoms: _263  and  _265
REMARK  109  A    between atoms: _265  and  _266
REMARK  110  A    between atoms: _265  and  _268
REMARK  111  A    between atoms: _268  and  _269
REMARK  112  A    between atoms: _269  and  _270
REMARK  113  A    between atoms: _270  and  _271
REMARK  114  A    between atoms: _280  and  _282
REMARK  115  A    between atoms: _282  and  _283
REMARK  116  A    between atoms: _282  and  _285
REMARK  117  A    between atoms: _285  and  _286
REMARK  118  A    between atoms: _286  and  _287
REMARK  119  A    between atoms: _287  and  _288
REMARK  120  A    between atoms: _297  and  _299
REMARK  121  A    between atoms: _299  and  _300
REMARK  122  A    between atoms: _299  and  _302
REMARK  123  A    between atoms: _302  and  _303
REMARK  124  A    between atoms: _306  and  _308
REMARK  125  A    between atoms: _308  and  _309
REMARK  126  A    between atoms: _308  and  _311
REMARK  127  A    between atoms: _311  and  _312
REMARK  128  A    between atoms: _315  and  _317
REMARK  129  A    between atoms: _317  and  _318
REMARK  130  A    between atoms: _317  and  _320
REMARK  131  A    between atoms: _320  and  _321
REMARK  132  A    between atoms: _324  and  _326
REMARK  133  A    between atoms: _326  and  _327
REMARK  134  A    between atoms: _326  and  _329
REMARK  135  A    between atoms: _329  and  _330
REMARK  136  A    between atoms: _333  and  _335
REMARK  137  A    between atoms: _335  and  _336
REMARK  138  A    between atoms: _338  and  _340
REMARK  139  A    between atoms: _340  and  _341
REMARK  140  A    between atoms: _344  and  _346
REMARK  141  A    between atoms: _346  and  _347
REMARK  142  A    between atoms: _346  and  _349
REMARK  143  A    between atoms: _349  and  _350
REMARK  144  A    between atoms: _353  and  _355
REMARK  145  A    between atoms: _355  and  _356
REMARK  146  A    between atoms: _355  and  _358
REMARK  147  A    between atoms: _358  and  _359
REMARK  148  A    between atoms: _362  and  _364
REMARK  149  A    between atoms: _364  and  _365
REMARK  150  A    between atoms: _364  and  _367
REMARK  151  A    between atoms: _367  and  _368
REMARK  152  A    between atoms: _371  and  _373
REMARK  153  A    between atoms: _373  and  _374
REMARK  154  A    between atoms: _373  and  _376
REMARK  155  A    between atoms: _379  and  _381
REMARK  156  A    between atoms: _381  and  _382
REMARK  157  A    between atoms: _381  and  _384
REMARK  158  A    between atoms: _384  and  _385
REMARK  159  A    between atoms: _388  and  _390
REMARK  160  A    between atoms: _390  and  _391
REMARK  161  A    between atoms: _390  and  _393
REMARK  162  A    between atoms: _393  and  _394
REMARK  163  A    between atoms: _394  and  _395
REMARK  164  A    between atoms: _395  and  _396
REMARK  165  A    between atoms: _396  and  _397
REMARK  166  A    between atoms: _401  and  _403
REMARK  167  A    between atoms: _403  and  _404
REMARK  168  A    between atoms: _403  and  _406
REMARK  169  A    between atoms: _406  and  _407
REMARK  170  A    between atoms: _407  and  _408
REMARK  171  A    between atoms: _410  and  _412
REMARK  172  A    between atoms: _412  and  _413
REMARK  173  A    between atoms: _412  and  _415
REMARK  174  A    between atoms: _415  and  _416
REMARK  175  A    between atoms: _419  and  _421
REMARK  176  A    between atoms: _421  and  _422
REMARK  177  A    between atoms: _424  and  _426
REMARK  178  A    between atoms: _426  and  _427
REMARK  179  A    between atoms: _429  and  _431
REMARK  180  A    between atoms: _431  and  _432
REMARK  181  A    between atoms: _431  and  _434
REMARK  182  A    between atoms: _434  and  _435
REMARK  183  A    between atoms: _438  and  _440
REMARK  184  A    between atoms: _440  and  _441
REMARK  185  A    between atoms: _443  and  _445
REMARK  186  A    between atoms: _445  and  _446
REMARK  187  A    between atoms: _448  and  _450
REMARK  188  A    between atoms: _450  and  _451
REMARK  189  A    between atoms: _450  and  _453
REMARK  190  A    between atoms: _453  and  _454
REMARK  191  A    between atoms: _460  and  _462
REMARK  192  A    between atoms: _462  and  _463
REMARK  193  A    between atoms: _462  and  _465
REMARK  194  A    between atoms: _465  and  _466
REMARK  195  A    between atoms: _469  and  _471
REMARK  196  A    between atoms: _471  and  _472
REMARK  197  A    between atoms: _471  and  _474
REMARK  198  A    between atoms: _477  and  _479
REMARK  199  A    between atoms: _479  and  _480
REMARK  200  A    between atoms: _479  and  _482
REMARK  201  A    between atoms: _482  and  _483
REMARK  202  A    between atoms: _487  and  _488
REMARK  203  A    between atoms: _493  and  _495
REMARK  204  A    between atoms: _495  and  _496
REMARK  205  A    between atoms: _495  and  _498
REMARK  206  A    between atoms: _498  and  _499
REMARK  207  A    between atoms: _503  and  _504
REMARK  208  A    between atoms: _509  and  _511
REMARK  209  A    between atoms: _511  and  _512
REMARK  210  A    between atoms: _511  and  _514
REMARK  211  A    between atoms: _517  and  _519
REMARK  212  A    between atoms: _519  and  _520
REMARK  213  A    between atoms: _519  and  _522
REMARK  214  A    between atoms: _522  and  _523
REMARK  215  A    between atoms: _528  and  _530
REMARK  216  A    between atoms: _530  and  _531
REMARK  217  A    between atoms: _530  and  _533
REMARK  218  A    between atoms: _533  and  _534
REMARK  219  A    between atoms: _537  and  _539
REMARK  220  A    between atoms: _539  and  _540
REMARK  221  A    between atoms: _539  and  _542
REMARK  222  A    between atoms: _542  and  _543
REMARK  223  A    between atoms: _546  and  _548
REMARK  224  A    between atoms: _548  and  _549
REMARK  225  A    between atoms: _551  and  _553
REMARK  226  A    between atoms: _553  and  _554
REMARK  227  A    between atoms: _553  and  _556
REMARK  228  A    between atoms: _556  and  _557
REMARK  229  A    between atoms: _557  and  _558
REMARK  230  A    between atoms: _558  and  _559
REMARK  231  A    between atoms: _568  and  _570
REMARK  232  A    between atoms: _570  and  _571
REMARK  233  A    between atoms: _570  and  _573
REMARK  234  A    between atoms: _573  and  _574
REMARK                            x       y       z     vdW  Elec       q    Type
REMARK                         _______ _______ _______ _____ _____    ______ ____
ROOT
ATOM      1  O   HOH     1      -0.090 -14.157 -16.678  0.00  0.00    +0.000 OA
ENDROOT
TORSDOF 0
REMARK  Name = ../refined-set-2016/2o4s/2o4s_pocket.pdb
REMARK  234 active torsions:
REMARK  status: ('A' for Active; 'I' for Inactive)
REMARK    1  A    between atoms: _1  and  _3
REMARK    2  A    between atoms: _3  and  _4
REMARK    3  A    between atoms: _3  and  _6
REMARK    4  A    between atoms: _6  and  _7
REMARK    5  A    between atoms: _7  and  _8
REMARK    6  A    between atoms: _8  and  _9
REMARK    7  A    between atoms: _18  and  _20
REMARK    8  A    between atoms: _20  and  _21
REMARK    9  A    between atoms: _20  and  _23
REMARK   10  A    between atoms: _23  and  _24
REMARK   11  A    between atoms: _27  and  _29
REMARK   12  A    between atoms: _29  and  _30
REMARK   13  A    between atoms: _29  and  _32
REMARK   14  A    between atoms: _32  and  _33
REMARK   15  A    between atoms: _36  and  _38
REMARK   16  A    between atoms: _38  and  _39
REMARK   17  A    between atoms: _38  and  _41
REMARK   18  A    between atoms: _41  and  _42
REMARK   19  A    between atoms: _45  and  _47
REMARK   20  A    between atoms: _47  and  _48
REMARK   21  A    between atoms: _47  and  _50
REMARK   22  A    between atoms: _50  and  _51
REMARK   23  A    between atoms: _54  and  _56
REMARK   24  A    between atoms: _56  and  _57
REMARK   25  A    between atoms: _59  and  _61
REMARK   26  A    between atoms: _61  and  _62
REMARK   27  A    between atoms: _65  and  _67
REMARK   28  A    between atoms: _67  and  _68
REMARK   29  A    between atoms: _67  and  _70
REMARK   30  A    between atoms: _70  and  _71
REMARK   31  A    between atoms: _74  and  _76
REMARK   32  A    between atoms: _76  and  _77
REMARK   33  A    between atoms: _76  and  _79
REMARK   34  A    between atoms: _79  and  _80
REMARK   35  A    between atoms: _83  and  _85
REMARK   36  A    between atoms: _85  and  _86
REMARK   37  A    between atoms: _85  and  _88
REMARK   38  A    between atoms: _88  and  _89
REMARK   39  A    between atoms: _92  and  _94
REMARK   40  A    between atoms: _94  and  _95
REMARK   41  A    between atoms: _94  and  _97
REMARK   42  A    between atoms: _100  and  _102
REMARK   43  A    between atoms: _102  and  _103
REMARK   44  A    between atoms: _102  and  _105
REMARK   45  A    between atoms: _105  and  _106
REMARK   46  A    between atoms: _106  and  _107
REMARK   47  A    between atoms: _107  and  _108
REMARK   48  A    between atoms: _108  and  _109
REMARK   49  A    between atoms: _113  and  _115
REMARK   50  A    between atoms: _115  and  _116
REMARK   51  A    between atoms: _115  and  _118
REMARK   52  A    between atoms: _118  and  _119
REMARK   53  A    between atoms: _119  and  _120
REMARK   54  A    between atoms: _122  and  _124
REMARK   55  A    between atoms: _124  and  _125
REMARK   56  A    between atoms: _124  and  _127
REMARK   57  A    between atoms: _127  and  _128
REMARK   58  A    between atoms: _131  and  _133
REMARK   59  A    between atoms: _133  and  _134
REMARK   60  A    between atoms: _136  and  _138
REMARK   61  A    between atoms: _138  and  _139
REMARK   62  A    between atoms: _141  and  _143
REMARK   63  A    between atoms: _143  and  _144
REMARK   64  A    between atoms: _143  and  _146
REMARK   65  A    between atoms: _146  and  _147
REMARK   66  A    between atoms: _150  and  _152
REMARK   67  A    between atoms: _152  and  _153
REMARK   68  A    between atoms: _155  and  _157
REMARK   69  A    between atoms: _157  and  _158
REMARK   70  A    between atoms: _160  and  _162
REMARK   71  A    between atoms: _162  and  _163
REMARK   72  A    between atoms: _162  and  _165
REMARK   73  A    between atoms: _165  and  _166
REMARK   74  A    between atoms: _172  and  _174
REMARK   75  A    between atoms: _174  and  _175
REMARK   76  A    between atoms: _174  and  _177
REMARK   77  A    between atoms: _177  and  _178
REMARK   78  A    between atoms: _181  and  _183
REMARK   79  A    between atoms: _183  and  _184
REMARK   80  A    between atoms: _183  and  _186
REMARK   81  A    between atoms: _189  and  _191
REMARK   82  A    between atoms: _191  and  _192
REMARK   83  A    between atoms: _191  and  _194
REMARK   84  A    between atoms: _194  and  _195
REMARK   85  A    between atoms: _199  and  _200
REMARK   86  A    between atoms: _205  and  _207
REMARK   87  A    between atoms: _207  and  _208
REMARK   88  A    between atoms: _207  and  _210
REMARK   89  A    between atoms: _210  and  _211
REMARK   90  A    between atoms: _215  and  _216
REMARK   91  A    between atoms: _221  and  _223
REMARK   92  A    between atoms: _223  and  _224
REMARK   93  A    between atoms: _223  and  _226
REMARK   94  A    between atoms: _229  and  _231
REMARK   95  A    between atoms: _231  and  _232
REMARK   96  A    between atoms: _231  and  _234
REMARK   97  A    between atoms: _234  and  _235
REMARK   98  A    between atoms: _240  and  _242
REMARK   99  A    between atoms: _242  and  _243
REMARK  100  A    between atoms: _242  and  _245
REMARK  101  A    between atoms: _245  and  _246
REMARK  102  A    between atoms: _249  and  _251
REMARK  103  A    between atoms: _251  and  _252
REMARK  104  A    between atoms: _251  and  _254
REMARK  105  A    between atoms: _254  and  _255
REMARK  106  A    between atoms: _258  and  _260
REMARK  107  A    between atoms: _260  and  _261
REMARK  108  A    between atoms: _263  and  _265
REMARK  109  A    between atoms: _265  and  _266
REMARK  110  A    between atoms: _265  and  _268
REMARK  111  A    between atoms: _268  and  _269
REMARK  112  A    between atoms: _269  and  _270
REMARK  113  A    between atoms: _270  and  _271
REMARK  114  A    between atoms: _280  and  _282
REMARK  115  A    between atoms: _282  and  _283
REMARK  116  A    between atoms: _282  and  _285
REMARK  117  A    between atoms: _285  and  _286
REMARK  118  A    between atoms: _286  and  _287
REMARK  119  A    between atoms: _287  and  _288
REMARK  120  A    between atoms: _297  and  _299
REMARK  121  A    between atoms: _299  and  _300
REMARK  122  A    between atoms: _299  and  _302
REMARK  123  A    between atoms: _302  and  _303
REMARK  124  A    between atoms: _306  and  _308
REMARK  125  A    between atoms: _308  and  _309
REMARK  126  A    between atoms: _308  and  _311
REMARK  127  A    between atoms: _311  and  _312
REMARK  128  A    between atoms: _315  and  _317
REMARK  129  A    between atoms: _317  and  _318
REMARK  130  A    between atoms: _317  and  _320
REMARK  131  A    between atoms: _320  and  _321
REMARK  132  A    between atoms: _324  and  _326
REMARK  133  A    between atoms: _326  and  _327
REMARK  134  A    between atoms: _326  and  _329
REMARK  135  A    between atoms: _329  and  _330
REMARK  136  A    between atoms: _333  and  _335
REMARK  137  A    between atoms: _335  and  _336
REMARK  138  A    between atoms: _338  and  _340
REMARK  139  A    between atoms: _340  and  _341
REMARK  140  A    between atoms: _344  and  _346
REMARK  141  A    between atoms: _346  and  _347
REMARK  142  A    between atoms: _346  and  _349
REMARK  143  A    between atoms: _349  and  _350
REMARK  144  A    between atoms: _353  and  _355
REMARK  145  A    between atoms: _355  and  _356
REMARK  146  A    between atoms: _355  and  _358
REMARK  147  A    between atoms: _358  and  _359
REMARK  148  A    between atoms: _362  and  _364
REMARK  149  A    between atoms: _364  and  _365
REMARK  150  A    between atoms: _364  and  _367
REMARK  151  A    between atoms: _367  and  _368
REMARK  152  A    between atoms: _371  and  _373
REMARK  153  A    between atoms: _373  and  _374
REMARK  154  A    between atoms: _373  and  _376
REMARK  155  A    between atoms: _379  and  _381
REMARK  156  A    between atoms: _381  and  _382
REMARK  157  A    between atoms: _381  and  _384
REMARK  158  A    between atoms: _384  and  _385
REMARK  159  A    between atoms: _388  and  _390
REMARK  160  A    between atoms: _390  and  _391
REMARK  161  A    between atoms: _390  and  _393
REMARK  162  A    between atoms: _393  and  _394
REMARK  163  A    between atoms: _394  and  _395
REMARK  164  A    between atoms: _395  and  _396
REMARK  165  A    between atoms: _396  and  _397
REMARK  166  A    between atoms: _401  and  _403
REMARK  167  A    between atoms: _403  and  _404
REMARK  168  A    between atoms: _403  and  _406
REMARK  169  A    between atoms: _406  and  _407
REMARK  170  A    between atoms: _407  and  _408
REMARK  171  A    between atoms: _410  and  _412
REMARK  172  A    between atoms: _412  and  _413
REMARK  173  A    between atoms: _412  and  _415
REMARK  174  A    between atoms: _415  and  _416
REMARK  175  A    between atoms: _419  and  _421
REMARK  176  A    between atoms: _421  and  _422
REMARK  177  A    between atoms: _424  and  _426
REMARK  178  A    between atoms: _426  and  _427
REMARK  179  A    between atoms: _429  and  _431
REMARK  180  A    between atoms: _431  and  _432
REMARK  181  A    between atoms: _431  and  _434
REMARK  182  A    between atoms: _434  and  _435
REMARK  183  A    between atoms: _438  and  _440
REMARK  184  A    between atoms: _440  and  _441
REMARK  185  A    between atoms: _443  and  _445
REMARK  186  A    between atoms: _445  and  _446
REMARK  187  A    between atoms: _448  and  _450
REMARK  188  A    between atoms: _450  and  _451
REMARK  189  A    between atoms: _450  and  _453
REMARK  190  A    between atoms: _453  and  _454
REMARK  191  A    between atoms: _460  and  _462
REMARK  192  A    between atoms: _462  and  _463
REMARK  193  A    between atoms: _462  and  _465
REMARK  194  A    between atoms: _465  and  _466
REMARK  195  A    between atoms: _469  and  _471
REMARK  196  A    between atoms: _471  and  _472
REMARK  197  A    between atoms: _471  and  _474
REMARK  198  A    between atoms: _477  and  _479
REMARK  199  A    between atoms: _479  and  _480
REMARK  200  A    between atoms: _479  and  _482
REMARK  201  A    between atoms: _482  and  _483
REMARK  202  A    between atoms: _487  and  _488
REMARK  203  A    between atoms: _493  and  _495
REMARK  204  A    between atoms: _495  and  _496
REMARK  205  A    between atoms: _495  and  _498
REMARK  206  A    between atoms: _498  and  _499
REMARK  207  A    between atoms: _503  and  _504
REMARK  208  A    between atoms: _509  and  _511
REMARK  209  A    between atoms: _511  and  _512
REMARK  210  A    between atoms: _511  and  _514
REMARK  211  A    between atoms: _517  and  _519
REMARK  212  A    between atoms: _519  and  _520
REMARK  213  A    between atoms: _519  and  _522
REMARK  214  A    between atoms: _522  and  _523
REMARK  215  A    between atoms: _528  and  _530
REMARK  216  A    between atoms: _530  and  _531
REMARK  217  A    between atoms: _530  and  _533
REMARK  218  A    between atoms: _533  and  _534
REMARK  219  A    between atoms: _537  and  _539
REMARK  220  A    between atoms: _539  and  _540
REMARK  221  A    between atoms: _539  and  _542
REMARK  222  A    between atoms: _542  and  _543
REMARK  223  A    between atoms: _546  and  _548
REMARK  224  A    between atoms: _548  and  _549
REMARK  225  A    between atoms: _551  and  _553
REMARK  226  A    between atoms: _553  and  _554
REMARK  227  A    between atoms: _553  and  _556
REMARK  228  A    between atoms: _556  and  _557
REMARK  229  A    between atoms: _557  and  _558
REMARK  230  A    between atoms: _558  and  _559
REMARK  231  A    between atoms: _568  and  _570
REMARK  232  A    between atoms: _570  and  _571
REMARK  233  A    between atoms: _570  and  _573
REMARK  234  A    between atoms: _573  and  _574
REMARK                            x       y       z     vdW  Elec       q    Type
REMARK                         _______ _______ _______ _____ _____    ______ ____
ROOT
ATOM      1  O   HOH     1      22.015 -18.996 -18.230  0.00  0.00    +0.000 OA
ENDROOT
TORSDOF 0
REMARK  Name = ../refined-set-2016/2o4s/2o4s_pocket.pdb
REMARK  234 active torsions:
REMARK  status: ('A' for Active; 'I' for Inactive)
REMARK    1  A    between atoms: _1  and  _3
REMARK    2  A    between atoms: _3  and  _4
REMARK    3  A    between atoms: _3  and  _6
REMARK    4  A    between atoms: _6  and  _7
REMARK    5  A    between atoms: _7  and  _8
REMARK    6  A    between atoms: _8  and  _9
REMARK    7  A    between atoms: _18  and  _20
REMARK    8  A    between atoms: _20  and  _21
REMARK    9  A    between atoms: _20  and  _23
REMARK   10  A    between atoms: _23  and  _24
REMARK   11  A    between atoms: _27  and  _29
REMARK   12  A    between atoms: _29  and  _30
REMARK   13  A    between atoms: _29  and  _32
REMARK   14  A    between atoms: _32  and  _33
REMARK   15  A    between atoms: _36  and  _38
REMARK   16  A    between atoms: _38  and  _39
REMARK   17  A    between atoms: _38  and  _41
REMARK   18  A    between atoms: _41  and  _42
REMARK   19  A    between atoms: _45  and  _47
REMARK   20  A    between atoms: _47  and  _48
REMARK   21  A    between atoms: _47  and  _50
REMARK   22  A    between atoms: _50  and  _51
REMARK   23  A    between atoms: _54  and  _56
REMARK   24  A    between atoms: _56  and  _57
REMARK   25  A    between atoms: _59  and  _61
REMARK   26  A    between atoms: _61  and  _62
REMARK   27  A    between atoms: _65  and  _67
REMARK   28  A    between atoms: _67  and  _68
REMARK   29  A    between atoms: _67  and  _70
REMARK   30  A    between atoms: _70  and  _71
REMARK   31  A    between atoms: _74  and  _76
REMARK   32  A    between atoms: _76  and  _77
REMARK   33  A    between atoms: _76  and  _79
REMARK   34  A    between atoms: _79  and  _80
REMARK   35  A    between atoms: _83  and  _85
REMARK   36  A    between atoms: _85  and  _86
REMARK   37  A    between atoms: _85  and  _88
REMARK   38  A    between atoms: _88  and  _89
REMARK   39  A    between atoms: _92  and  _94
REMARK   40  A    between atoms: _94  and  _95
REMARK   41  A    between atoms: _94  and  _97
REMARK   42  A    between atoms: _100  and  _102
REMARK   43  A    between atoms: _102  and  _103
REMARK   44  A    between atoms: _102  and  _105
REMARK   45  A    between atoms: _105  and  _106
REMARK   46  A    between atoms: _106  and  _107
REMARK   47  A    between atoms: _107  and  _108
REMARK   48  A    between atoms: _108  and  _109
REMARK   49  A    between atoms: _113  and  _115
REMARK   50  A    between atoms: _115  and  _116
REMARK   51  A    between atoms: _115  and  _118
REMARK   52  A    between atoms: _118  and  _119
REMARK   53  A    between atoms: _119  and  _120
REMARK   54  A    between atoms: _122  and  _124
REMARK   55  A    between atoms: _124  and  _125
REMARK   56  A    between atoms: _124  and  _127
REMARK   57  A    between atoms: _127  and  _128
REMARK   58  A    between atoms: _131  and  _133
REMARK   59  A    between atoms: _133  and  _134
REMARK   60  A    between atoms: _136  and  _138
REMARK   61  A    between atoms: _138  and  _139
REMARK   62  A    between atoms: _141  and  _143
REMARK   63  A    between atoms: _143  and  _144
REMARK   64  A    between atoms: _143  and  _146
REMARK   65  A    between atoms: _146  and  _147
REMARK   66  A    between atoms: _150  and  _152
REMARK   67  A    between atoms: _152  and  _153
REMARK   68  A    between atoms: _155  and  _157
REMARK   69  A    between atoms: _157  and  _158
REMARK   70  A    between atoms: _160  and  _162
REMARK   71  A    between atoms: _162  and  _163
REMARK   72  A    between atoms: _162  and  _165
REMARK   73  A    between atoms: _165  and  _166
REMARK   74  A    between atoms: _172  and  _174
REMARK   75  A    between atoms: _174  and  _175
REMARK   76  A    between atoms: _174  and  _177
REMARK   77  A    between atoms: _177  and  _178
REMARK   78  A    between atoms: _181  and  _183
REMARK   79  A    between atoms: _183  and  _184
REMARK   80  A    between atoms: _183  and  _186
REMARK   81  A    between atoms: _189  and  _191
REMARK   82  A    between atoms: _191  and  _192
REMARK   83  A    between atoms: _191  and  _194
REMARK   84  A    between atoms: _194  and  _195
REMARK   85  A    between atoms: _199  and  _200
REMARK   86  A    between atoms: _205  and  _207
REMARK   87  A    between atoms: _207  and  _208
REMARK   88  A    between atoms: _207  and  _210
REMARK   89  A    between atoms: _210  and  _211
REMARK   90  A    between atoms: _215  and  _216
REMARK   91  A    between atoms: _221  and  _223
REMARK   92  A    between atoms: _223  and  _224
REMARK   93  A    between atoms: _223  and  _226
REMARK   94  A    between atoms: _229  and  _231
REMARK   95  A    between atoms: _231  and  _232
REMARK   96  A    between atoms: _231  and  _234
REMARK   97  A    between atoms: _234  and  _235
REMARK   98  A    between atoms: _240  and  _242
REMARK   99  A    between atoms: _242  and  _243
REMARK  100  A    between atoms: _242  and  _245
REMARK  101  A    between atoms: _245  and  _246
REMARK  102  A    between atoms: _249  and  _251
REMARK  103  A    between atoms: _251  and  _252
REMARK  104  A    between atoms: _251  and  _254
REMARK  105  A    between atoms: _254  and  _255
REMARK  106  A    between atoms: _258  and  _260
REMARK  107  A    between atoms: _260  and  _261
REMARK  108  A    between atoms: _263  and  _265
REMARK  109  A    between atoms: _265  and  _266
REMARK  110  A    between atoms: _265  and  _268
REMARK  111  A    between atoms: _268  and  _269
REMARK  112  A    between atoms: _269  and  _270
REMARK  113  A    between atoms: _270  and  _271
REMARK  114  A    between atoms: _280  and  _282
REMARK  115  A    between atoms: _282  and  _283
REMARK  116  A    between atoms: _282  and  _285
REMARK  117  A    between atoms: _285  and  _286
REMARK  118  A    between atoms: _286  and  _287
REMARK  119  A    between atoms: _287  and  _288
REMARK  120  A    between atoms: _297  and  _299
REMARK  121  A    between atoms: _299  and  _300
REMARK  122  A    between atoms: _299  and  _302
REMARK  123  A    between atoms: _302  and  _303
REMARK  124  A    between atoms: _306  and  _308
REMARK  125  A    between atoms: _308  and  _309
REMARK  126  A    between atoms: _308  and  _311
REMARK  127  A    between atoms: _311  and  _312
REMARK  128  A    between atoms: _315  and  _317
REMARK  129  A    between atoms: _317  and  _318
REMARK  130  A    between atoms: _317  and  _320
REMARK  131  A    between atoms: _320  and  _321
REMARK  132  A    between atoms: _324  and  _326
REMARK  133  A    between atoms: _326  and  _327
REMARK  134  A    between atoms: _326  and  _329
REMARK  135  A    between atoms: _329  and  _330
REMARK  136  A    between atoms: _333  and  _335
REMARK  137  A    between atoms: _335  and  _336
REMARK  138  A    between atoms: _338  and  _340
REMARK  139  A    between atoms: _340  and  _341
REMARK  140  A    between atoms: _344  and  _346
REMARK  141  A    between atoms: _346  and  _347
REMARK  142  A    between atoms: _346  and  _349
REMARK  143  A    between atoms: _349  and  _350
REMARK  144  A    between atoms: _353  and  _355
REMARK  145  A    between atoms: _355  and  _356
REMARK  146  A    between atoms: _355  and  _358
REMARK  147  A    between atoms: _358  and  _359
REMARK  148  A    between atoms: _362  and  _364
REMARK  149  A    between atoms: _364  and  _365
REMARK  150  A    between atoms: _364  and  _367
REMARK  151  A    between atoms: _367  and  _368
REMARK  152  A    between atoms: _371  and  _373
REMARK  153  A    between atoms: _373  and  _374
REMARK  154  A    between atoms: _373  and  _376
REMARK  155  A    between atoms: _379  and  _381
REMARK  156  A    between atoms: _381  and  _382
REMARK  157  A    between atoms: _381  and  _384
REMARK  158  A    between atoms: _384  and  _385
REMARK  159  A    between atoms: _388  and  _390
REMARK  160  A    between atoms: _390  and  _391
REMARK  161  A    between atoms: _390  and  _393
REMARK  162  A    between atoms: _393  and  _394
REMARK  163  A    between atoms: _394  and  _395
REMARK  164  A    between atoms: _395  and  _396
REMARK  165  A    between atoms: _396  and  _397
REMARK  166  A    between atoms: _401  and  _403
REMARK  167  A    between atoms: _403  and  _404
REMARK  168  A    between atoms: _403  and  _406
REMARK  169  A    between atoms: _406  and  _407
REMARK  170  A    between atoms: _407  and  _408
REMARK  171  A    between atoms: _410  and  _412
REMARK  172  A    between atoms: _412  and  _413
REMARK  173  A    between atoms: _412  and  _415
REMARK  174  A    between atoms: _415  and  _416
REMARK  175  A    between atoms: _419  and  _421
REMARK  176  A    between atoms: _421  and  _422
REMARK  177  A    between atoms: _424  and  _426
REMARK  178  A    between atoms: _426  and  _427
REMARK  179  A    between atoms: _429  and  _431
REMARK  180  A    between atoms: _431  and  _432
REMARK  181  A    between atoms: _431  and  _434
REMARK  182  A    between atoms: _434  and  _435
REMARK  183  A    between atoms: _438  and  _440
REMARK  184  A    between atoms: _440  and  _441
REMARK  185  A    between atoms: _443  and  _445
REMARK  186  A    between atoms: _445  and  _446
REMARK  187  A    between atoms: _448  and  _450
REMARK  188  A    between atoms: _450  and  _451
REMARK  189  A    between atoms: _450  and  _453
REMARK  190  A    between atoms: _453  and  _454
REMARK  191  A    between atoms: _460  and  _462
REMARK  192  A    between atoms: _462  and  _463
REMARK  193  A    between atoms: _462  and  _465
REMARK  194  A    between atoms: _465  and  _466
REMARK  195  A    between atoms: _469  and  _471
REMARK  196  A    between atoms: _471  and  _472
REMARK  197  A    between atoms: _471  and  _474
REMARK  198  A    between atoms: _477  and  _479
REMARK  199  A    between atoms: _479  and  _480
REMARK  200  A    between atoms: _479  and  _482
REMARK  201  A    between atoms: _482  and  _483
REMARK  202  A    between atoms: _487  and  _488
REMARK  203  A    between atoms: _493  and  _495
REMARK  204  A    between atoms: _495  and  _496
REMARK  205  A    between atoms: _495  and  _498
REMARK  206  A    between atoms: _498  and  _499
REMARK  207  A    between atoms: _503  and  _504
REMARK  208  A    between atoms: _509  and  _511
REMARK  209  A    between atoms: _511  and  _512
REMARK  210  A    between atoms: _511  and  _514
REMARK  211  A    between atoms: _517  and  _519
REMARK  212  A    between atoms: _519  and  _520
REMARK  213  A    between atoms: _519  and  _522
REMARK  214  A    between atoms: _522  and  _523
REMARK  215  A    between atoms: _528  and  _530
REMARK  216  A    between atoms: _530  and  _531
REMARK  217  A    between atoms: _530  and  _533
REMARK  218  A    between atoms: _533  and  _534
REMARK  219  A    between atoms: _537  and  _539
REMARK  220  A    between atoms: _539  and  _540
REMARK  221  A    between atoms: _539  and  _542
REMARK  222  A    between atoms: _542  and  _543
REMARK  223  A    between atoms: _546  and  _548
REMARK  224  A    between atoms: _548  and  _549
REMARK  225  A    between atoms: _551  and  _553
REMARK  226  A    between atoms: _553  and  _554
REMARK  227  A    between atoms: _553  and  _556
REMARK  228  A    between atoms: _556  and  _557
REMARK  229  A    between atoms: _557  and  _558
REMARK  230  A    between atoms: _558  and  _559
REMARK  231  A    between atoms: _568  and  _570
REMARK  232  A    between atoms: _570  and  _571
REMARK  233  A    between atoms: _570  and  _573
REMARK  234  A    between atoms: _573  and  _574
REMARK                            x       y       z     vdW  Elec       q    Type
REMARK                         _______ _______ _______ _____ _____    ______ ____
ROOT
ATOM      1  O   HOH     1      20.511 -20.937 -16.747  0.00  0.00    +0.000 OA
ENDROOT
TORSDOF 0
REMARK  Name = ../refined-set-2016/2o4s/2o4s_pocket.pdb
REMARK  234 active torsions:
REMARK  status: ('A' for Active; 'I' for Inactive)
REMARK    1  A    between atoms: _1  and  _3
REMARK    2  A    between atoms: _3  and  _4
REMARK    3  A    between atoms: _3  and  _6
REMARK    4  A    between atoms: _6  and  _7
REMARK    5  A    between atoms: _7  and  _8
REMARK    6  A    between atoms: _8  and  _9
REMARK    7  A    between atoms: _18  and  _20
REMARK    8  A    between atoms: _20  and  _21
REMARK    9  A    between atoms: _20  and  _23
REMARK   10  A    between atoms: _23  and  _24
REMARK   11  A    between atoms: _27  and  _29
REMARK   12  A    between atoms: _29  and  _30
REMARK   13  A    between atoms: _29  and  _32
REMARK   14  A    between atoms: _32  and  _33
REMARK   15  A    between atoms: _36  and  _38
REMARK   16  A    between atoms: _38  and  _39
REMARK   17  A    between atoms: _38  and  _41
REMARK   18  A    between atoms: _41  and  _42
REMARK   19  A    between atoms: _45  and  _47
REMARK   20  A    between atoms: _47  and  _48
REMARK   21  A    between atoms: _47  and  _50
REMARK   22  A    between atoms: _50  and  _51
REMARK   23  A    between atoms: _54  and  _56
REMARK   24  A    between atoms: _56  and  _57
REMARK   25  A    between atoms: _59  and  _61
REMARK   26  A    between atoms: _61  and  _62
REMARK   27  A    between atoms: _65  and  _67
REMARK   28  A    between atoms: _67  and  _68
REMARK   29  A    between atoms: _67  and  _70
REMARK   30  A    between atoms: _70  and  _71
REMARK   31  A    between atoms: _74  and  _76
REMARK   32  A    between atoms: _76  and  _77
REMARK   33  A    between atoms: _76  and  _79
REMARK   34  A    between atoms: _79  and  _80
REMARK   35  A    between atoms: _83  and  _85
REMARK   36  A    between atoms: _85  and  _86
REMARK   37  A    between atoms: _85  and  _88
REMARK   38  A    between atoms: _88  and  _89
REMARK   39  A    between atoms: _92  and  _94
REMARK   40  A    between atoms: _94  and  _95
REMARK   41  A    between atoms: _94  and  _97
REMARK   42  A    between atoms: _100  and  _102
REMARK   43  A    between atoms: _102  and  _103
REMARK   44  A    between atoms: _102  and  _105
REMARK   45  A    between atoms: _105  and  _106
REMARK   46  A    between atoms: _106  and  _107
REMARK   47  A    between atoms: _107  and  _108
REMARK   48  A    between atoms: _108  and  _109
REMARK   49  A    between atoms: _113  and  _115
REMARK   50  A    between atoms: _115  and  _116
REMARK   51  A    between atoms: _115  and  _118
REMARK   52  A    between atoms: _118  and  _119
REMARK   53  A    between atoms: _119  and  _120
REMARK   54  A    between atoms: _122  and  _124
REMARK   55  A    between atoms: _124  and  _125
REMARK   56  A    between atoms: _124  and  _127
REMARK   57  A    between atoms: _127  and  _128
REMARK   58  A    between atoms: _131  and  _133
REMARK   59  A    between atoms: _133  and  _134
REMARK   60  A    between atoms: _136  and  _138
REMARK   61  A    between atoms: _138  and  _139
REMARK   62  A    between atoms: _141  and  _143
REMARK   63  A    between atoms: _143  and  _144
REMARK   64  A    between atoms: _143  and  _146
REMARK   65  A    between atoms: _146  and  _147
REMARK   66  A    between atoms: _150  and  _152
REMARK   67  A    between atoms: _152  and  _153
REMARK   68  A    between atoms: _155  and  _157
REMARK   69  A    between atoms: _157  and  _158
REMARK   70  A    between atoms: _160  and  _162
REMARK   71  A    between atoms: _162  and  _163
REMARK   72  A    between atoms: _162  and  _165
REMARK   73  A    between atoms: _165  and  _166
REMARK   74  A    between atoms: _172  and  _174
REMARK   75  A    between atoms: _174  and  _175
REMARK   76  A    between atoms: _174  and  _177
REMARK   77  A    between atoms: _177  and  _178
REMARK   78  A    between atoms: _181  and  _183
REMARK   79  A    between atoms: _183  and  _184
REMARK   80  A    between atoms: _183  and  _186
REMARK   81  A    between atoms: _189  and  _191
REMARK   82  A    between atoms: _191  and  _192
REMARK   83  A    between atoms: _191  and  _194
REMARK   84  A    between atoms: _194  and  _195
REMARK   85  A    between atoms: _199  and  _200
REMARK   86  A    between atoms: _205  and  _207
REMARK   87  A    between atoms: _207  and  _208
REMARK   88  A    between atoms: _207  and  _210
REMARK   89  A    between atoms: _210  and  _211
REMARK   90  A    between atoms: _215  and  _216
REMARK   91  A    between atoms: _221  and  _223
REMARK   92  A    between atoms: _223  and  _224
REMARK   93  A    between atoms: _223  and  _226
REMARK   94  A    between atoms: _229  and  _231
REMARK   95  A    between atoms: _231  and  _232
REMARK   96  A    between atoms: _231  and  _234
REMARK   97  A    between atoms: _234  and  _235
REMARK   98  A    between atoms: _240  and  _242
REMARK   99  A    between atoms: _242  and  _243
REMARK  100  A    between atoms: _242  and  _245
REMARK  101  A    between atoms: _245  and  _246
REMARK  102  A    between atoms: _249  and  _251
REMARK  103  A    between atoms: _251  and  _252
REMARK  104  A    between atoms: _251  and  _254
REMARK  105  A    between atoms: _254  and  _255
REMARK  106  A    between atoms: _258  and  _260
REMARK  107  A    between atoms: _260  and  _261
REMARK  108  A    between atoms: _263  and  _265
REMARK  109  A    between atoms: _265  and  _266
REMARK  110  A    between atoms: _265  and  _268
REMARK  111  A    between atoms: _268  and  _269
REMARK  112  A    between atoms: _269  and  _270
REMARK  113  A    between atoms: _270  and  _271
REMARK  114  A    between atoms: _280  and  _282
REMARK  115  A    between atoms: _282  and  _283
REMARK  116  A    between atoms: _282  and  _285
REMARK  117  A    between atoms: _285  and  _286
REMARK  118  A    between atoms: _286  and  _287
REMARK  119  A    between atoms: _287  and  _288
REMARK  120  A    between atoms: _297  and  _299
REMARK  121  A    between atoms: _299  and  _300
REMARK  122  A    between atoms: _299  and  _302
REMARK  123  A    between atoms: _302  and  _303
REMARK  124  A    between atoms: _306  and  _308
REMARK  125  A    between atoms: _308  and  _309
REMARK  126  A    between atoms: _308  and  _311
REMARK  127  A    between atoms: _311  and  _312
REMARK  128  A    between atoms: _315  and  _317
REMARK  129  A    between atoms: _317  and  _318
REMARK  130  A    between atoms: _317  and  _320
REMARK  131  A    between atoms: _320  and  _321
REMARK  132  A    between atoms: _324  and  _326
REMARK  133  A    between atoms: _326  and  _327
REMARK  134  A    between atoms: _326  and  _329
REMARK  135  A    between atoms: _329  and  _330
REMARK  136  A    between atoms: _333  and  _335
REMARK  137  A    between atoms: _335  and  _336
REMARK  138  A    between atoms: _338  and  _340
REMARK  139  A    between atoms: _340  and  _341
REMARK  140  A    between atoms: _344  and  _346
REMARK  141  A    between atoms: _346  and  _347
REMARK  142  A    between atoms: _346  and  _349
REMARK  143  A    between atoms: _349  and  _350
REMARK  144  A    between atoms: _353  and  _355
REMARK  145  A    between atoms: _355  and  _356
REMARK  146  A    between atoms: _355  and  _358
REMARK  147  A    between atoms: _358  and  _359
REMARK  148  A    between atoms: _362  and  _364
REMARK  149  A    between atoms: _364  and  _365
REMARK  150  A    between atoms: _364  and  _367
REMARK  151  A    between atoms: _367  and  _368
REMARK  152  A    between atoms: _371  and  _373
REMARK  153  A    between atoms: _373  and  _374
REMARK  154  A    between atoms: _373  and  _376
REMARK  155  A    between atoms: _379  and  _381
REMARK  156  A    between atoms: _381  and  _382
REMARK  157  A    between atoms: _381  and  _384
REMARK  158  A    between atoms: _384  and  _385
REMARK  159  A    between atoms: _388  and  _390
REMARK  160  A    between atoms: _390  and  _391
REMARK  161  A    between atoms: _390  and  _393
REMARK  162  A    between atoms: _393  and  _394
REMARK  163  A    between atoms: _394  and  _395
REMARK  164  A    between atoms: _395  and  _396
REMARK  165  A    between atoms: _396  and  _397
REMARK  166  A    between atoms: _401  and  _403
REMARK  167  A    between atoms: _403  and  _404
REMARK  168  A    between atoms: _403  and  _406
REMARK  169  A    between atoms: _406  and  _407
REMARK  170  A    between atoms: _407  and  _408
REMARK  171  A    between atoms: _410  and  _412
REMARK  172  A    between atoms: _412  and  _413
REMARK  173  A    between atoms: _412  and  _415
REMARK  174  A    between atoms: _415  and  _416
REMARK  175  A    between atoms: _419  and  _421
REMARK  176  A    between atoms: _421  and  _422
REMARK  177  A    between atoms: _424  and  _426
REMARK  178  A    between atoms: _426  and  _427
REMARK  179  A    between atoms: _429  and  _431
REMARK  180  A    between atoms: _431  and  _432
REMARK  181  A    between atoms: _431  and  _434
REMARK  182  A    between atoms: _434  and  _435
REMARK  183  A    between atoms: _438  and  _440
REMARK  184  A    between atoms: _440  and  _441
REMARK  185  A    between atoms: _443  and  _445
REMARK  186  A    between atoms: _445  and  _446
REMARK  187  A    between atoms: _448  and  _450
REMARK  188  A    between atoms: _450  and  _451
REMARK  189  A    between atoms: _450  and  _453
REMARK  190  A    between atoms: _453  and  _454
REMARK  191  A    between atoms: _460  and  _462
REMARK  192  A    between atoms: _462  and  _463
REMARK  193  A    between atoms: _462  and  _465
REMARK  194  A    between atoms: _465  and  _466
REMARK  195  A    between atoms: _469  and  _471
REMARK  196  A    between atoms: _471  and  _472
REMARK  197  A    between atoms: _471  and  _474
REMARK  198  A    between atoms: _477  and  _479
REMARK  199  A    between atoms: _479  and  _480
REMARK  200  A    between atoms: _479  and  _482
REMARK  201  A    between atoms: _482  and  _483
REMARK  202  A    between atoms: _487  and  _488
REMARK  203  A    between atoms: _493  and  _495
REMARK  204  A    between atoms: _495  and  _496
REMARK  205  A    between atoms: _495  and  _498
REMARK  206  A    between atoms: _498  and  _499
REMARK  207  A    between atoms: _503  and  _504
REMARK  208  A    between atoms: _509  and  _511
REMARK  209  A    between atoms: _511  and  _512
REMARK  210  A    between atoms: _511  and  _514
REMARK  211  A    between atoms: _517  and  _519
REMARK  212  A    between atoms: _519  and  _520
REMARK  213  A    between atoms: _519  and  _522
REMARK  214  A    between atoms: _522  and  _523
REMARK  215  A    between atoms: _528  and  _530
REMARK  216  A    between atoms: _530  and  _531
REMARK  217  A    between atoms: _530  and  _533
REMARK  218  A    between atoms: _533  and  _534
REMARK  219  A    between atoms: _537  and  _539
REMARK  220  A    between atoms: _539  and  _540
REMARK  221  A    between atoms: _539  and  _542
REMARK  222  A    between atoms: _542  and  _543
REMARK  223  A    between atoms: _546  and  _548
REMARK  224  A    between atoms: _548  and  _549
REMARK  225  A    between atoms: _551  and  _553
REMARK  226  A    between atoms: _553  and  _554
REMARK  227  A    between atoms: _553  and  _556
REMARK  228  A    between atoms: _556  and  _557
REMARK  229  A    between atoms: _557  and  _558
REMARK  230  A    between atoms: _558  and  _559
REMARK  231  A    between atoms: _568  and  _570
REMARK  232  A    between atoms: _570  and  _571
REMARK  233  A    between atoms: _570  and  _573
REMARK  234  A    between atoms: _573  and  _574
REMARK                            x       y       z     vdW  Elec       q    Type
REMARK                         _______ _______ _______ _____ _____    ______ ____
ROOT
ATOM      1  O   HOH     1      20.715 -26.654 -27.050  0.00  0.00    +0.000 OA
ENDROOT
TORSDOF 0
REMARK  Name = ../refined-set-2016/2o4s/2o4s_pocket.pdb
REMARK  234 active torsions:
REMARK  status: ('A' for Active; 'I' for Inactive)
REMARK    1  A    between atoms: _1  and  _3
REMARK    2  A    between atoms: _3  and  _4
REMARK    3  A    between atoms: _3  and  _6
REMARK    4  A    between atoms: _6  and  _7
REMARK    5  A    between atoms: _7  and  _8
REMARK    6  A    between atoms: _8  and  _9
REMARK    7  A    between atoms: _18  and  _20
REMARK    8  A    between atoms: _20  and  _21
REMARK    9  A    between atoms: _20  and  _23
REMARK   10  A    between atoms: _23  and  _24
REMARK   11  A    between atoms: _27  and  _29
REMARK   12  A    between atoms: _29  and  _30
REMARK   13  A    between atoms: _29  and  _32
REMARK   14  A    between atoms: _32  and  _33
REMARK   15  A    between atoms: _36  and  _38
REMARK   16  A    between atoms: _38  and  _39
REMARK   17  A    between atoms: _38  and  _41
REMARK   18  A    between atoms: _41  and  _42
REMARK   19  A    between atoms: _45  and  _47
REMARK   20  A    between atoms: _47  and  _48
REMARK   21  A    between atoms: _47  and  _50
REMARK   22  A    between atoms: _50  and  _51
REMARK   23  A    between atoms: _54  and  _56
REMARK   24  A    between atoms: _56  and  _57
REMARK   25  A    between atoms: _59  and  _61
REMARK   26  A    between atoms: _61  and  _62
REMARK   27  A    between atoms: _65  and  _67
REMARK   28  A    between atoms: _67  and  _68
REMARK   29  A    between atoms: _67  and  _70
REMARK   30  A    between atoms: _70  and  _71
REMARK   31  A    between atoms: _74  and  _76
REMARK   32  A    between atoms: _76  and  _77
REMARK   33  A    between atoms: _76  and  _79
REMARK   34  A    between atoms: _79  and  _80
REMARK   35  A    between atoms: _83  and  _85
REMARK   36  A    between atoms: _85  and  _86
REMARK   37  A    between atoms: _85  and  _88
REMARK   38  A    between atoms: _88  and  _89
REMARK   39  A    between atoms: _92  and  _94
REMARK   40  A    between atoms: _94  and  _95
REMARK   41  A    between atoms: _94  and  _97
REMARK   42  A    between atoms: _100  and  _102
REMARK   43  A    between atoms: _102  and  _103
REMARK   44  A    between atoms: _102  and  _105
REMARK   45  A    between atoms: _105  and  _106
REMARK   46  A    between atoms: _106  and  _107
REMARK   47  A    between atoms: _107  and  _108
REMARK   48  A    between atoms: _108  and  _109
REMARK   49  A    between atoms: _113  and  _115
REMARK   50  A    between atoms: _115  and  _116
REMARK   51  A    between atoms: _115  and  _118
REMARK   52  A    between atoms: _118  and  _119
REMARK   53  A    between atoms: _119  and  _120
REMARK   54  A    between atoms: _122  and  _124
REMARK   55  A    between atoms: _124  and  _125
REMARK   56  A    between atoms: _124  and  _127
REMARK   57  A    between atoms: _127  and  _128
REMARK   58  A    between atoms: _131  and  _133
REMARK   59  A    between atoms: _133  and  _134
REMARK   60  A    between atoms: _136  and  _138
REMARK   61  A    between atoms: _138  and  _139
REMARK   62  A    between atoms: _141  and  _143
REMARK   63  A    between atoms: _143  and  _144
REMARK   64  A    between atoms: _143  and  _146
REMARK   65  A    between atoms: _146  and  _147
REMARK   66  A    between atoms: _150  and  _152
REMARK   67  A    between atoms: _152  and  _153
REMARK   68  A    between atoms: _155  and  _157
REMARK   69  A    between atoms: _157  and  _158
REMARK   70  A    between atoms: _160  and  _162
REMARK   71  A    between atoms: _162  and  _163
REMARK   72  A    between atoms: _162  and  _165
REMARK   73  A    between atoms: _165  and  _166
REMARK   74  A    between atoms: _172  and  _174
REMARK   75  A    between atoms: _174  and  _175
REMARK   76  A    between atoms: _174  and  _177
REMARK   77  A    between atoms: _177  and  _178
REMARK   78  A    between atoms: _181  and  _183
REMARK   79  A    between atoms: _183  and  _184
REMARK   80  A    between atoms: _183  and  _186
REMARK   81  A    between atoms: _189  and  _191
REMARK   82  A    between atoms: _191  and  _192
REMARK   83  A    between atoms: _191  and  _194
REMARK   84  A    between atoms: _194  and  _195
REMARK   85  A    between atoms: _199  and  _200
REMARK   86  A    between atoms: _205  and  _207
REMARK   87  A    between atoms: _207  and  _208
REMARK   88  A    between atoms: _207  and  _210
REMARK   89  A    between atoms: _210  and  _211
REMARK   90  A    between atoms: _215  and  _216
REMARK   91  A    between atoms: _221  and  _223
REMARK   92  A    between atoms: _223  and  _224
REMARK   93  A    between atoms: _223  and  _226
REMARK   94  A    between atoms: _229  and  _231
REMARK   95  A    between atoms: _231  and  _232
REMARK   96  A    between atoms: _231  and  _234
REMARK   97  A    between atoms: _234  and  _235
REMARK   98  A    between atoms: _240  and  _242
REMARK   99  A    between atoms: _242  and  _243
REMARK  100  A    between atoms: _242  and  _245
REMARK  101  A    between atoms: _245  and  _246
REMARK  102  A    between atoms: _249  and  _251
REMARK  103  A    between atoms: _251  and  _252
REMARK  104  A    between atoms: _251  and  _254
REMARK  105  A    between atoms: _254  and  _255
REMARK  106  A    between atoms: _258  and  _260
REMARK  107  A    between atoms: _260  and  _261
REMARK  108  A    between atoms: _263  and  _265
REMARK  109  A    between atoms: _265  and  _266
REMARK  110  A    between atoms: _265  and  _268
REMARK  111  A    between atoms: _268  and  _269
REMARK  112  A    between atoms: _269  and  _270
REMARK  113  A    between atoms: _270  and  _271
REMARK  114  A    between atoms: _280  and  _282
REMARK  115  A    between atoms: _282  and  _283
REMARK  116  A    between atoms: _282  and  _285
REMARK  117  A    between atoms: _285  and  _286
REMARK  118  A    between atoms: _286  and  _287
REMARK  119  A    between atoms: _287  and  _288
REMARK  120  A    between atoms: _297  and  _299
REMARK  121  A    between atoms: _299  and  _300
REMARK  122  A    between atoms: _299  and  _302
REMARK  123  A    between atoms: _302  and  _303
REMARK  124  A    between atoms: _306  and  _308
REMARK  125  A    between atoms: _308  and  _309
REMARK  126  A    between atoms: _308  and  _311
REMARK  127  A    between atoms: _311  and  _312
REMARK  128  A    between atoms: _315  and  _317
REMARK  129  A    between atoms: _317  and  _318
REMARK  130  A    between atoms: _317  and  _320
REMARK  131  A    between atoms: _320  and  _321
REMARK  132  A    between atoms: _324  and  _326
REMARK  133  A    between atoms: _326  and  _327
REMARK  134  A    between atoms: _326  and  _329
REMARK  135  A    between atoms: _329  and  _330
REMARK  136  A    between atoms: _333  and  _335
REMARK  137  A    between atoms: _335  and  _336
REMARK  138  A    between atoms: _338  and  _340
REMARK  139  A    between atoms: _340  and  _341
REMARK  140  A    between atoms: _344  and  _346
REMARK  141  A    between atoms: _346  and  _347
REMARK  142  A    between atoms: _346  and  _349
REMARK  143  A    between atoms: _349  and  _350
REMARK  144  A    between atoms: _353  and  _355
REMARK  145  A    between atoms: _355  and  _356
REMARK  146  A    between atoms: _355  and  _358
REMARK  147  A    between atoms: _358  and  _359
REMARK  148  A    between atoms: _362  and  _364
REMARK  149  A    between atoms: _364  and  _365
REMARK  150  A    between atoms: _364  and  _367
REMARK  151  A    between atoms: _367  and  _368
REMARK  152  A    between atoms: _371  and  _373
REMARK  153  A    between atoms: _373  and  _374
REMARK  154  A    between atoms: _373  and  _376
REMARK  155  A    between atoms: _379  and  _381
REMARK  156  A    between atoms: _381  and  _382
REMARK  157  A    between atoms: _381  and  _384
REMARK  158  A    between atoms: _384  and  _385
REMARK  159  A    between atoms: _388  and  _390
REMARK  160  A    between atoms: _390  and  _391
REMARK  161  A    between atoms: _390  and  _393
REMARK  162  A    between atoms: _393  and  _394
REMARK  163  A    between atoms: _394  and  _395
REMARK  164  A    between atoms: _395  and  _396
REMARK  165  A    between atoms: _396  and  _397
REMARK  166  A    between atoms: _401  and  _403
REMARK  167  A    between atoms: _403  and  _404
REMARK  168  A    between atoms: _403  and  _406
REMARK  169  A    between atoms: _406  and  _407
REMARK  170  A    between atoms: _407  and  _408
REMARK  171  A    between atoms: _410  and  _412
REMARK  172  A    between atoms: _412  and  _413
REMARK  173  A    between atoms: _412  and  _415
REMARK  174  A    between atoms: _415  and  _416
REMARK  175  A    between atoms: _419  and  _421
REMARK  176  A    between atoms: _421  and  _422
REMARK  177  A    between atoms: _424  and  _426
REMARK  178  A    between atoms: _426  and  _427
REMARK  179  A    between atoms: _429  and  _431
REMARK  180  A    between atoms: _431  and  _432
REMARK  181  A    between atoms: _431  and  _434
REMARK  182  A    between atoms: _434  and  _435
REMARK  183  A    between atoms: _438  and  _440
REMARK  184  A    between atoms: _440  and  _441
REMARK  185  A    between atoms: _443  and  _445
REMARK  186  A    between atoms: _445  and  _446
REMARK  187  A    between atoms: _448  and  _450
REMARK  188  A    between atoms: _450  and  _451
REMARK  189  A    between atoms: _450  and  _453
REMARK  190  A    between atoms: _453  and  _454
REMARK  191  A    between atoms: _460  and  _462
REMARK  192  A    between atoms: _462  and  _463
REMARK  193  A    between atoms: _462  and  _465
REMARK  194  A    between atoms: _465  and  _466
REMARK  195  A    between atoms: _469  and  _471
REMARK  196  A    between atoms: _471  and  _472
REMARK  197  A    between atoms: _471  and  _474
REMARK  198  A    between atoms: _477  and  _479
REMARK  199  A    between atoms: _479  and  _480
REMARK  200  A    between atoms: _479  and  _482
REMARK  201  A    between atoms: _482  and  _483
REMARK  202  A    between atoms: _487  and  _488
REMARK  203  A    between atoms: _493  and  _495
REMARK  204  A    between atoms: _495  and  _496
REMARK  205  A    between atoms: _495  and  _498
REMARK  206  A    between atoms: _498  and  _499
REMARK  207  A    between atoms: _503  and  _504
REMARK  208  A    between atoms: _509  and  _511
REMARK  209  A    between atoms: _511  and  _512
REMARK  210  A    between atoms: _511  and  _514
REMARK  211  A    between atoms: _517  and  _519
REMARK  212  A    between atoms: _519  and  _520
REMARK  213  A    between atoms: _519  and  _522
REMARK  214  A    between atoms: _522  and  _523
REMARK  215  A    between atoms: _528  and  _530
REMARK  216  A    between atoms: _530  and  _531
REMARK  217  A    between atoms: _530  and  _533
REMARK  218  A    between atoms: _533  and  _534
REMARK  219  A    between atoms: _537  and  _539
REMARK  220  A    between atoms: _539  and  _540
REMARK  221  A    between atoms: _539  and  _542
REMARK  222  A    between atoms: _542  and  _543
REMARK  223  A    between atoms: _546  and  _548
REMARK  224  A    between atoms: _548  and  _549
REMARK  225  A    between atoms: _551  and  _553
REMARK  226  A    between atoms: _553  and  _554
REMARK  227  A    between atoms: _553  and  _556
REMARK  228  A    between atoms: _556  and  _557
REMARK  229  A    between atoms: _557  and  _558
REMARK  230  A    between atoms: _558  and  _559
REMARK  231  A    between atoms: _568  and  _570
REMARK  232  A    between atoms: _570  and  _571
REMARK  233  A    between atoms: _570  and  _573
REMARK  234  A    between atoms: _573  and  _574
REMARK                            x       y       z     vdW  Elec       q    Type
REMARK                         _______ _______ _______ _____ _____    ______ ____
ROOT
ATOM      1  O   HOH     1      13.856 -27.047 -12.298  0.00  0.00    +0.000 OA
ENDROOT
TORSDOF 0
REMARK  Name = ../refined-set-2016/2o4s/2o4s_pocket.pdb
REMARK  234 active torsions:
REMARK  status: ('A' for Active; 'I' for Inactive)
REMARK    1  A    between atoms: _1  and  _3
REMARK    2  A    between atoms: _3  and  _4
REMARK    3  A    between atoms: _3  and  _6
REMARK    4  A    between atoms: _6  and  _7
REMARK    5  A    between atoms: _7  and  _8
REMARK    6  A    between atoms: _8  and  _9
REMARK    7  A    between atoms: _18  and  _20
REMARK    8  A    between atoms: _20  and  _21
REMARK    9  A    between atoms: _20  and  _23
REMARK   10  A    between atoms: _23  and  _24
REMARK   11  A    between atoms: _27  and  _29
REMARK   12  A    between atoms: _29  and  _30
REMARK   13  A    between atoms: _29  and  _32
REMARK   14  A    between atoms: _32  and  _33
REMARK   15  A    between atoms: _36  and  _38
REMARK   16  A    between atoms: _38  and  _39
REMARK   17  A    between atoms: _38  and  _41
REMARK   18  A    between atoms: _41  and  _42
REMARK   19  A    between atoms: _45  and  _47
REMARK   20  A    between atoms: _47  and  _48
REMARK   21  A    between atoms: _47  and  _50
REMARK   22  A    between atoms: _50  and  _51
REMARK   23  A    between atoms: _54  and  _56
REMARK   24  A    between atoms: _56  and  _57
REMARK   25  A    between atoms: _59  and  _61
REMARK   26  A    between atoms: _61  and  _62
REMARK   27  A    between atoms: _65  and  _67
REMARK   28  A    between atoms: _67  and  _68
REMARK   29  A    between atoms: _67  and  _70
REMARK   30  A    between atoms: _70  and  _71
REMARK   31  A    between atoms: _74  and  _76
REMARK   32  A    between atoms: _76  and  _77
REMARK   33  A    between atoms: _76  and  _79
REMARK   34  A    between atoms: _79  and  _80
REMARK   35  A    between atoms: _83  and  _85
REMARK   36  A    between atoms: _85  and  _86
REMARK   37  A    between atoms: _85  and  _88
REMARK   38  A    between atoms: _88  and  _89
REMARK   39  A    between atoms: _92  and  _94
REMARK   40  A    between atoms: _94  and  _95
REMARK   41  A    between atoms: _94  and  _97
REMARK   42  A    between atoms: _100  and  _102
REMARK   43  A    between atoms: _102  and  _103
REMARK   44  A    between atoms: _102  and  _105
REMARK   45  A    between atoms: _105  and  _106
REMARK   46  A    between atoms: _106  and  _107
REMARK   47  A    between atoms: _107  and  _108
REMARK   48  A    between atoms: _108  and  _109
REMARK   49  A    between atoms: _113  and  _115
REMARK   50  A    between atoms: _115  and  _116
REMARK   51  A    between atoms: _115  and  _118
REMARK   52  A    between atoms: _118  and  _119
REMARK   53  A    between atoms: _119  and  _120
REMARK   54  A    between atoms: _122  and  _124
REMARK   55  A    between atoms: _124  and  _125
REMARK   56  A    between atoms: _124  and  _127
REMARK   57  A    between atoms: _127  and  _128
REMARK   58  A    between atoms: _131  and  _133
REMARK   59  A    between atoms: _133  and  _134
REMARK   60  A    between atoms: _136  and  _138
REMARK   61  A    between atoms: _138  and  _139
REMARK   62  A    between atoms: _141  and  _143
REMARK   63  A    between atoms: _143  and  _144
REMARK   64  A    between atoms: _143  and  _146
REMARK   65  A    between atoms: _146  and  _147
REMARK   66  A    between atoms: _150  and  _152
REMARK   67  A    between atoms: _152  and  _153
REMARK   68  A    between atoms: _155  and  _157
REMARK   69  A    between atoms: _157  and  _158
REMARK   70  A    between atoms: _160  and  _162
REMARK   71  A    between atoms: _162  and  _163
REMARK   72  A    between atoms: _162  and  _165
REMARK   73  A    between atoms: _165  and  _166
REMARK   74  A    between atoms: _172  and  _174
REMARK   75  A    between atoms: _174  and  _175
REMARK   76  A    between atoms: _174  and  _177
REMARK   77  A    between atoms: _177  and  _178
REMARK   78  A    between atoms: _181  and  _183
REMARK   79  A    between atoms: _183  and  _184
REMARK   80  A    between atoms: _183  and  _186
REMARK   81  A    between atoms: _189  and  _191
REMARK   82  A    between atoms: _191  and  _192
REMARK   83  A    between atoms: _191  and  _194
REMARK   84  A    between atoms: _194  and  _195
REMARK   85  A    between atoms: _199  and  _200
REMARK   86  A    between atoms: _205  and  _207
REMARK   87  A    between atoms: _207  and  _208
REMARK   88  A    between atoms: _207  and  _210
REMARK   89  A    between atoms: _210  and  _211
REMARK   90  A    between atoms: _215  and  _216
REMARK   91  A    between atoms: _221  and  _223
REMARK   92  A    between atoms: _223  and  _224
REMARK   93  A    between atoms: _223  and  _226
REMARK   94  A    between atoms: _229  and  _231
REMARK   95  A    between atoms: _231  and  _232
REMARK   96  A    between atoms: _231  and  _234
REMARK   97  A    between atoms: _234  and  _235
REMARK   98  A    between atoms: _240  and  _242
REMARK   99  A    between atoms: _242  and  _243
REMARK  100  A    between atoms: _242  and  _245
REMARK  101  A    between atoms: _245  and  _246
REMARK  102  A    between atoms: _249  and  _251
REMARK  103  A    between atoms: _251  and  _252
REMARK  104  A    between atoms: _251  and  _254
REMARK  105  A    between atoms: _254  and  _255
REMARK  106  A    between atoms: _258  and  _260
REMARK  107  A    between atoms: _260  and  _261
REMARK  108  A    between atoms: _263  and  _265
REMARK  109  A    between atoms: _265  and  _266
REMARK  110  A    between atoms: _265  and  _268
REMARK  111  A    between atoms: _268  and  _269
REMARK  112  A    between atoms: _269  and  _270
REMARK  113  A    between atoms: _270  and  _271
REMARK  114  A    between atoms: _280  and  _282
REMARK  115  A    between atoms: _282  and  _283
REMARK  116  A    between atoms: _282  and  _285
REMARK  117  A    between atoms: _285  and  _286
REMARK  118  A    between atoms: _286  and  _287
REMARK  119  A    between atoms: _287  and  _288
REMARK  120  A    between atoms: _297  and  _299
REMARK  121  A    between atoms: _299  and  _300
REMARK  122  A    between atoms: _299  and  _302
REMARK  123  A    between atoms: _302  and  _303
REMARK  124  A    between atoms: _306  and  _308
REMARK  125  A    between atoms: _308  and  _309
REMARK  126  A    between atoms: _308  and  _311
REMARK  127  A    between atoms: _311  and  _312
REMARK  128  A    between atoms: _315  and  _317
REMARK  129  A    between atoms: _317  and  _318
REMARK  130  A    between atoms: _317  and  _320
REMARK  131  A    between atoms: _320  and  _321
REMARK  132  A    between atoms: _324  and  _326
REMARK  133  A    between atoms: _326  and  _327
REMARK  134  A    between atoms: _326  and  _329
REMARK  135  A    between atoms: _329  and  _330
REMARK  136  A    between atoms: _333  and  _335
REMARK  137  A    between atoms: _335  and  _336
REMARK  138  A    between atoms: _338  and  _340
REMARK  139  A    between atoms: _340  and  _341
REMARK  140  A    between atoms: _344  and  _346
REMARK  141  A    between atoms: _346  and  _347
REMARK  142  A    between atoms: _346  and  _349
REMARK  143  A    between atoms: _349  and  _350
REMARK  144  A    between atoms: _353  and  _355
REMARK  145  A    between atoms: _355  and  _356
REMARK  146  A    between atoms: _355  and  _358
REMARK  147  A    between atoms: _358  and  _359
REMARK  148  A    between atoms: _362  and  _364
REMARK  149  A    between atoms: _364  and  _365
REMARK  150  A    between atoms: _364  and  _367
REMARK  151  A    between atoms: _367  and  _368
REMARK  152  A    between atoms: _371  and  _373
REMARK  153  A    between atoms: _373  and  _374
REMARK  154  A    between atoms: _373  and  _376
REMARK  155  A    between atoms: _379  and  _381
REMARK  156  A    between atoms: _381  and  _382
REMARK  157  A    between atoms: _381  and  _384
REMARK  158  A    between atoms: _384  and  _385
REMARK  159  A    between atoms: _388  and  _390
REMARK  160  A    between atoms: _390  and  _391
REMARK  161  A    between atoms: _390  and  _393
REMARK  162  A    between atoms: _393  and  _394
REMARK  163  A    between atoms: _394  and  _395
REMARK  164  A    between atoms: _395  and  _396
REMARK  165  A    between atoms: _396  and  _397
REMARK  166  A    between atoms: _401  and  _403
REMARK  167  A    between atoms: _403  and  _404
REMARK  168  A    between atoms: _403  and  _406
REMARK  169  A    between atoms: _406  and  _407
REMARK  170  A    between atoms: _407  and  _408
REMARK  171  A    between atoms: _410  and  _412
REMARK  172  A    between atoms: _412  and  _413
REMARK  173  A    between atoms: _412  and  _415
REMARK  174  A    between atoms: _415  and  _416
REMARK  175  A    between atoms: _419  and  _421
REMARK  176  A    between atoms: _421  and  _422
REMARK  177  A    between atoms: _424  and  _426
REMARK  178  A    between atoms: _426  and  _427
REMARK  179  A    between atoms: _429  and  _431
REMARK  180  A    between atoms: _431  and  _432
REMARK  181  A    between atoms: _431  and  _434
REMARK  182  A    between atoms: _434  and  _435
REMARK  183  A    between atoms: _438  and  _440
REMARK  184  A    between atoms: _440  and  _441
REMARK  185  A    between atoms: _443  and  _445
REMARK  186  A    between atoms: _445  and  _446
REMARK  187  A    between atoms: _448  and  _450
REMARK  188  A    between atoms: _450  and  _451
REMARK  189  A    between atoms: _450  and  _453
REMARK  190  A    between atoms: _453  and  _454
REMARK  191  A    between atoms: _460  and  _462
REMARK  192  A    between atoms: _462  and  _463
REMARK  193  A    between atoms: _462  and  _465
REMARK  194  A    between atoms: _465  and  _466
REMARK  195  A    between atoms: _469  and  _471
REMARK  196  A    between atoms: _471  and  _472
REMARK  197  A    between atoms: _471  and  _474
REMARK  198  A    between atoms: _477  and  _479
REMARK  199  A    between atoms: _479  and  _480
REMARK  200  A    between atoms: _479  and  _482
REMARK  201  A    between atoms: _482  and  _483
REMARK  202  A    between atoms: _487  and  _488
REMARK  203  A    between atoms: _493  and  _495
REMARK  204  A    between atoms: _495  and  _496
REMARK  205  A    between atoms: _495  and  _498
REMARK  206  A    between atoms: _498  and  _499
REMARK  207  A    between atoms: _503  and  _504
REMARK  208  A    between atoms: _509  and  _511
REMARK  209  A    between atoms: _511  and  _512
REMARK  210  A    between atoms: _511  and  _514
REMARK  211  A    between atoms: _517  and  _519
REMARK  212  A    between atoms: _519  and  _520
REMARK  213  A    between atoms: _519  and  _522
REMARK  214  A    between atoms: _522  and  _523
REMARK  215  A    between atoms: _528  and  _530
REMARK  216  A    between atoms: _530  and  _531
REMARK  217  A    between atoms: _530  and  _533
REMARK  218  A    between atoms: _533  and  _534
REMARK  219  A    between atoms: _537  and  _539
REMARK  220  A    between atoms: _539  and  _540
REMARK  221  A    between atoms: _539  and  _542
REMARK  222  A    between atoms: _542  and  _543
REMARK  223  A    between atoms: _546  and  _548
REMARK  224  A    between atoms: _548  and  _549
REMARK  225  A    between atoms: _551  and  _553
REMARK  226  A    between atoms: _553  and  _554
REMARK  227  A    between atoms: _553  and  _556
REMARK  228  A    between atoms: _556  and  _557
REMARK  229  A    between atoms: _557  and  _558
REMARK  230  A    between atoms: _558  and  _559
REMARK  231  A    between atoms: _568  and  _570
REMARK  232  A    between atoms: _570  and  _571
REMARK  233  A    between atoms: _570  and  _573
REMARK  234  A    between atoms: _573  and  _574
REMARK                            x       y       z     vdW  Elec       q    Type
REMARK                         _______ _______ _______ _____ _____    ______ ____
ROOT
ATOM      1  O   HOH     1       3.216 -16.991 -20.369  0.00  0.00    +0.000 OA
ENDROOT
TORSDOF 0
REMARK  Name = ../refined-set-2016/2o4s/2o4s_pocket.pdb
REMARK  234 active torsions:
REMARK  status: ('A' for Active; 'I' for Inactive)
REMARK    1  A    between atoms: _1  and  _3
REMARK    2  A    between atoms: _3  and  _4
REMARK    3  A    between atoms: _3  and  _6
REMARK    4  A    between atoms: _6  and  _7
REMARK    5  A    between atoms: _7  and  _8
REMARK    6  A    between atoms: _8  and  _9
REMARK    7  A    between atoms: _18  and  _20
REMARK    8  A    between atoms: _20  and  _21
REMARK    9  A    between atoms: _20  and  _23
REMARK   10  A    between atoms: _23  and  _24
REMARK   11  A    between atoms: _27  and  _29
REMARK   12  A    between atoms: _29  and  _30
REMARK   13  A    between atoms: _29  and  _32
REMARK   14  A    between atoms: _32  and  _33
REMARK   15  A    between atoms: _36  and  _38
REMARK   16  A    between atoms: _38  and  _39
REMARK   17  A    between atoms: _38  and  _41
REMARK   18  A    between atoms: _41  and  _42
REMARK   19  A    between atoms: _45  and  _47
REMARK   20  A    between atoms: _47  and  _48
REMARK   21  A    between atoms: _47  and  _50
REMARK   22  A    between atoms: _50  and  _51
REMARK   23  A    between atoms: _54  and  _56
REMARK   24  A    between atoms: _56  and  _57
REMARK   25  A    between atoms: _59  and  _61
REMARK   26  A    between atoms: _61  and  _62
REMARK   27  A    between atoms: _65  and  _67
REMARK   28  A    between atoms: _67  and  _68
REMARK   29  A    between atoms: _67  and  _70
REMARK   30  A    between atoms: _70  and  _71
REMARK   31  A    between atoms: _74  and  _76
REMARK   32  A    between atoms: _76  and  _77
REMARK   33  A    between atoms: _76  and  _79
REMARK   34  A    between atoms: _79  and  _80
REMARK   35  A    between atoms: _83  and  _85
REMARK   36  A    between atoms: _85  and  _86
REMARK   37  A    between atoms: _85  and  _88
REMARK   38  A    between atoms: _88  and  _89
REMARK   39  A    between atoms: _92  and  _94
REMARK   40  A    between atoms: _94  and  _95
REMARK   41  A    between atoms: _94  and  _97
REMARK   42  A    between atoms: _100  and  _102
REMARK   43  A    between atoms: _102  and  _103
REMARK   44  A    between atoms: _102  and  _105
REMARK   45  A    between atoms: _105  and  _106
REMARK   46  A    between atoms: _106  and  _107
REMARK   47  A    between atoms: _107  and  _108
REMARK   48  A    between atoms: _108  and  _109
REMARK   49  A    between atoms: _113  and  _115
REMARK   50  A    between atoms: _115  and  _116
REMARK   51  A    between atoms: _115  and  _118
REMARK   52  A    between atoms: _118  and  _119
REMARK   53  A    between atoms: _119  and  _120
REMARK   54  A    between atoms: _122  and  _124
REMARK   55  A    between atoms: _124  and  _125
REMARK   56  A    between atoms: _124  and  _127
REMARK   57  A    between atoms: _127  and  _128
REMARK   58  A    between atoms: _131  and  _133
REMARK   59  A    between atoms: _133  and  _134
REMARK   60  A    between atoms: _136  and  _138
REMARK   61  A    between atoms: _138  and  _139
REMARK   62  A    between atoms: _141  and  _143
REMARK   63  A    between atoms: _143  and  _144
REMARK   64  A    between atoms: _143  and  _146
REMARK   65  A    between atoms: _146  and  _147
REMARK   66  A    between atoms: _150  and  _152
REMARK   67  A    between atoms: _152  and  _153
REMARK   68  A    between atoms: _155  and  _157
REMARK   69  A    between atoms: _157  and  _158
REMARK   70  A    between atoms: _160  and  _162
REMARK   71  A    between atoms: _162  and  _163
REMARK   72  A    between atoms: _162  and  _165
REMARK   73  A    between atoms: _165  and  _166
REMARK   74  A    between atoms: _172  and  _174
REMARK   75  A    between atoms: _174  and  _175
REMARK   76  A    between atoms: _174  and  _177
REMARK   77  A    between atoms: _177  and  _178
REMARK   78  A    between atoms: _181  and  _183
REMARK   79  A    between atoms: _183  and  _184
REMARK   80  A    between atoms: _183  and  _186
REMARK   81  A    between atoms: _189  and  _191
REMARK   82  A    between atoms: _191  and  _192
REMARK   83  A    between atoms: _191  and  _194
REMARK   84  A    between atoms: _194  and  _195
REMARK   85  A    between atoms: _199  and  _200
REMARK   86  A    between atoms: _205  and  _207
REMARK   87  A    between atoms: _207  and  _208
REMARK   88  A    between atoms: _207  and  _210
REMARK   89  A    between atoms: _210  and  _211
REMARK   90  A    between atoms: _215  and  _216
REMARK   91  A    between atoms: _221  and  _223
REMARK   92  A    between atoms: _223  and  _224
REMARK   93  A    between atoms: _223  and  _226
REMARK   94  A    between atoms: _229  and  _231
REMARK   95  A    between atoms: _231  and  _232
REMARK   96  A    between atoms: _231  and  _234
REMARK   97  A    between atoms: _234  and  _235
REMARK   98  A    between atoms: _240  and  _242
REMARK   99  A    between atoms: _242  and  _243
REMARK  100  A    between atoms: _242  and  _245
REMARK  101  A    between atoms: _245  and  _246
REMARK  102  A    between atoms: _249  and  _251
REMARK  103  A    between atoms: _251  and  _252
REMARK  104  A    between atoms: _251  and  _254
REMARK  105  A    between atoms: _254  and  _255
REMARK  106  A    between atoms: _258  and  _260
REMARK  107  A    between atoms: _260  and  _261
REMARK  108  A    between atoms: _263  and  _265
REMARK  109  A    between atoms: _265  and  _266
REMARK  110  A    between atoms: _265  and  _268
REMARK  111  A    between atoms: _268  and  _269
REMARK  112  A    between atoms: _269  and  _270
REMARK  113  A    between atoms: _270  and  _271
REMARK  114  A    between atoms: _280  and  _282
REMARK  115  A    between atoms: _282  and  _283
REMARK  116  A    between atoms: _282  and  _285
REMARK  117  A    between atoms: _285  and  _286
REMARK  118  A    between atoms: _286  and  _287
REMARK  119  A    between atoms: _287  and  _288
REMARK  120  A    between atoms: _297  and  _299
REMARK  121  A    between atoms: _299  and  _300
REMARK  122  A    between atoms: _299  and  _302
REMARK  123  A    between atoms: _302  and  _303
REMARK  124  A    between atoms: _306  and  _308
REMARK  125  A    between atoms: _308  and  _309
REMARK  126  A    between atoms: _308  and  _311
REMARK  127  A    between atoms: _311  and  _312
REMARK  128  A    between atoms: _315  and  _317
REMARK  129  A    between atoms: _317  and  _318
REMARK  130  A    between atoms: _317  and  _320
REMARK  131  A    between atoms: _320  and  _321
REMARK  132  A    between atoms: _324  and  _326
REMARK  133  A    between atoms: _326  and  _327
REMARK  134  A    between atoms: _326  and  _329
REMARK  135  A    between atoms: _329  and  _330
REMARK  136  A    between atoms: _333  and  _335
REMARK  137  A    between atoms: _335  and  _336
REMARK  138  A    between atoms: _338  and  _340
REMARK  139  A    between atoms: _340  and  _341
REMARK  140  A    between atoms: _344  and  _346
REMARK  141  A    between atoms: _346  and  _347
REMARK  142  A    between atoms: _346  and  _349
REMARK  143  A    between atoms: _349  and  _350
REMARK  144  A    between atoms: _353  and  _355
REMARK  145  A    between atoms: _355  and  _356
REMARK  146  A    between atoms: _355  and  _358
REMARK  147  A    between atoms: _358  and  _359
REMARK  148  A    between atoms: _362  and  _364
REMARK  149  A    between atoms: _364  and  _365
REMARK  150  A    between atoms: _364  and  _367
REMARK  151  A    between atoms: _367  and  _368
REMARK  152  A    between atoms: _371  and  _373
REMARK  153  A    between atoms: _373  and  _374
REMARK  154  A    between atoms: _373  and  _376
REMARK  155  A    between atoms: _379  and  _381
REMARK  156  A    between atoms: _381  and  _382
REMARK  157  A    between atoms: _381  and  _384
REMARK  158  A    between atoms: _384  and  _385
REMARK  159  A    between atoms: _388  and  _390
REMARK  160  A    between atoms: _390  and  _391
REMARK  161  A    between atoms: _390  and  _393
REMARK  162  A    between atoms: _393  and  _394
REMARK  163  A    between atoms: _394  and  _395
REMARK  164  A    between atoms: _395  and  _396
REMARK  165  A    between atoms: _396  and  _397
REMARK  166  A    between atoms: _401  and  _403
REMARK  167  A    between atoms: _403  and  _404
REMARK  168  A    between atoms: _403  and  _406
REMARK  169  A    between atoms: _406  and  _407
REMARK  170  A    between atoms: _407  and  _408
REMARK  171  A    between atoms: _410  and  _412
REMARK  172  A    between atoms: _412  and  _413
REMARK  173  A    between atoms: _412  and  _415
REMARK  174  A    between atoms: _415  and  _416
REMARK  175  A    between atoms: _419  and  _421
REMARK  176  A    between atoms: _421  and  _422
REMARK  177  A    between atoms: _424  and  _426
REMARK  178  A    between atoms: _426  and  _427
REMARK  179  A    between atoms: _429  and  _431
REMARK  180  A    between atoms: _431  and  _432
REMARK  181  A    between atoms: _431  and  _434
REMARK  182  A    between atoms: _434  and  _435
REMARK  183  A    between atoms: _438  and  _440
REMARK  184  A    between atoms: _440  and  _441
REMARK  185  A    between atoms: _443  and  _445
REMARK  186  A    between atoms: _445  and  _446
REMARK  187  A    between atoms: _448  and  _450
REMARK  188  A    between atoms: _450  and  _451
REMARK  189  A    between atoms: _450  and  _453
REMARK  190  A    between atoms: _453  and  _454
REMARK  191  A    between atoms: _460  and  _462
REMARK  192  A    between atoms: _462  and  _463
REMARK  193  A    between atoms: _462  and  _465
REMARK  194  A    between atoms: _465  and  _466
REMARK  195  A    between atoms: _469  and  _471
REMARK  196  A    between atoms: _471  and  _472
REMARK  197  A    between atoms: _471  and  _474
REMARK  198  A    between atoms: _477  and  _479
REMARK  199  A    between atoms: _479  and  _480
REMARK  200  A    between atoms: _479  and  _482
REMARK  201  A    between atoms: _482  and  _483
REMARK  202  A    between atoms: _487  and  _488
REMARK  203  A    between atoms: _493  and  _495
REMARK  204  A    between atoms: _495  and  _496
REMARK  205  A    between atoms: _495  and  _498
REMARK  206  A    between atoms: _498  and  _499
REMARK  207  A    between atoms: _503  and  _504
REMARK  208  A    between atoms: _509  and  _511
REMARK  209  A    between atoms: _511  and  _512
REMARK  210  A    between atoms: _511  and  _514
REMARK  211  A    between atoms: _517  and  _519
REMARK  212  A    between atoms: _519  and  _520
REMARK  213  A    between atoms: _519  and  _522
REMARK  214  A    between atoms: _522  and  _523
REMARK  215  A    between atoms: _528  and  _530
REMARK  216  A    between atoms: _530  and  _531
REMARK  217  A    between atoms: _530  and  _533
REMARK  218  A    between atoms: _533  and  _534
REMARK  219  A    between atoms: _537  and  _539
REMARK  220  A    between atoms: _539  and  _540
REMARK  221  A    between atoms: _539  and  _542
REMARK  222  A    between atoms: _542  and  _543
REMARK  223  A    between atoms: _546  and  _548
REMARK  224  A    between atoms: _548  and  _549
REMARK  225  A    between atoms: _551  and  _553
REMARK  226  A    between atoms: _553  and  _554
REMARK  227  A    between atoms: _553  and  _556
REMARK  228  A    between atoms: _556  and  _557
REMARK  229  A    between atoms: _557  and  _558
REMARK  230  A    between atoms: _558  and  _559
REMARK  231  A    between atoms: _568  and  _570
REMARK  232  A    between atoms: _570  and  _571
REMARK  233  A    between atoms: _570  and  _573
REMARK  234  A    between atoms: _573  and  _574
REMARK                            x       y       z     vdW  Elec       q    Type
REMARK                         _______ _______ _______ _____ _____    ______ ____
ROOT
ATOM      1  O   HOH     1      10.086 -25.061  -9.089  0.00  0.00    +0.000 OA
ENDROOT
TORSDOF 0
REMARK  Name = ../refined-set-2016/2o4s/2o4s_pocket.pdb
REMARK  234 active torsions:
REMARK  status: ('A' for Active; 'I' for Inactive)
REMARK    1  A    between atoms: _1  and  _3
REMARK    2  A    between atoms: _3  and  _4
REMARK    3  A    between atoms: _3  and  _6
REMARK    4  A    between atoms: _6  and  _7
REMARK    5  A    between atoms: _7  and  _8
REMARK    6  A    between atoms: _8  and  _9
REMARK    7  A    between atoms: _18  and  _20
REMARK    8  A    between atoms: _20  and  _21
REMARK    9  A    between atoms: _20  and  _23
REMARK   10  A    between atoms: _23  and  _24
REMARK   11  A    between atoms: _27  and  _29
REMARK   12  A    between atoms: _29  and  _30
REMARK   13  A    between atoms: _29  and  _32
REMARK   14  A    between atoms: _32  and  _33
REMARK   15  A    between atoms: _36  and  _38
REMARK   16  A    between atoms: _38  and  _39
REMARK   17  A    between atoms: _38  and  _41
REMARK   18  A    between atoms: _41  and  _42
REMARK   19  A    between atoms: _45  and  _47
REMARK   20  A    between atoms: _47  and  _48
REMARK   21  A    between atoms: _47  and  _50
REMARK   22  A    between atoms: _50  and  _51
REMARK   23  A    between atoms: _54  and  _56
REMARK   24  A    between atoms: _56  and  _57
REMARK   25  A    between atoms: _59  and  _61
REMARK   26  A    between atoms: _61  and  _62
REMARK   27  A    between atoms: _65  and  _67
REMARK   28  A    between atoms: _67  and  _68
REMARK   29  A    between atoms: _67  and  _70
REMARK   30  A    between atoms: _70  and  _71
REMARK   31  A    between atoms: _74  and  _76
REMARK   32  A    between atoms: _76  and  _77
REMARK   33  A    between atoms: _76  and  _79
REMARK   34  A    between atoms: _79  and  _80
REMARK   35  A    between atoms: _83  and  _85
REMARK   36  A    between atoms: _85  and  _86
REMARK   37  A    between atoms: _85  and  _88
REMARK   38  A    between atoms: _88  and  _89
REMARK   39  A    between atoms: _92  and  _94
REMARK   40  A    between atoms: _94  and  _95
REMARK   41  A    between atoms: _94  and  _97
REMARK   42  A    between atoms: _100  and  _102
REMARK   43  A    between atoms: _102  and  _103
REMARK   44  A    between atoms: _102  and  _105
REMARK   45  A    between atoms: _105  and  _106
REMARK   46  A    between atoms: _106  and  _107
REMARK   47  A    between atoms: _107  and  _108
REMARK   48  A    between atoms: _108  and  _109
REMARK   49  A    between atoms: _113  and  _115
REMARK   50  A    between atoms: _115  and  _116
REMARK   51  A    between atoms: _115  and  _118
REMARK   52  A    between atoms: _118  and  _119
REMARK   53  A    between atoms: _119  and  _120
REMARK   54  A    between atoms: _122  and  _124
REMARK   55  A    between atoms: _124  and  _125
REMARK   56  A    between atoms: _124  and  _127
REMARK   57  A    between atoms: _127  and  _128
REMARK   58  A    between atoms: _131  and  _133
REMARK   59  A    between atoms: _133  and  _134
REMARK   60  A    between atoms: _136  and  _138
REMARK   61  A    between atoms: _138  and  _139
REMARK   62  A    between atoms: _141  and  _143
REMARK   63  A    between atoms: _143  and  _144
REMARK   64  A    between atoms: _143  and  _146
REMARK   65  A    between atoms: _146  and  _147
REMARK   66  A    between atoms: _150  and  _152
REMARK   67  A    between atoms: _152  and  _153
REMARK   68  A    between atoms: _155  and  _157
REMARK   69  A    between atoms: _157  and  _158
REMARK   70  A    between atoms: _160  and  _162
REMARK   71  A    between atoms: _162  and  _163
REMARK   72  A    between atoms: _162  and  _165
REMARK   73  A    between atoms: _165  and  _166
REMARK   74  A    between atoms: _172  and  _174
REMARK   75  A    between atoms: _174  and  _175
REMARK   76  A    between atoms: _174  and  _177
REMARK   77  A    between atoms: _177  and  _178
REMARK   78  A    between atoms: _181  and  _183
REMARK   79  A    between atoms: _183  and  _184
REMARK   80  A    between atoms: _183  and  _186
REMARK   81  A    between atoms: _189  and  _191
REMARK   82  A    between atoms: _191  and  _192
REMARK   83  A    between atoms: _191  and  _194
REMARK   84  A    between atoms: _194  and  _195
REMARK   85  A    between atoms: _199  and  _200
REMARK   86  A    between atoms: _205  and  _207
REMARK   87  A    between atoms: _207  and  _208
REMARK   88  A    between atoms: _207  and  _210
REMARK   89  A    between atoms: _210  and  _211
REMARK   90  A    between atoms: _215  and  _216
REMARK   91  A    between atoms: _221  and  _223
REMARK   92  A    between atoms: _223  and  _224
REMARK   93  A    between atoms: _223  and  _226
REMARK   94  A    between atoms: _229  and  _231
REMARK   95  A    between atoms: _231  and  _232
REMARK   96  A    between atoms: _231  and  _234
REMARK   97  A    between atoms: _234  and  _235
REMARK   98  A    between atoms: _240  and  _242
REMARK   99  A    between atoms: _242  and  _243
REMARK  100  A    between atoms: _242  and  _245
REMARK  101  A    between atoms: _245  and  _246
REMARK  102  A    between atoms: _249  and  _251
REMARK  103  A    between atoms: _251  and  _252
REMARK  104  A    between atoms: _251  and  _254
REMARK  105  A    between atoms: _254  and  _255
REMARK  106  A    between atoms: _258  and  _260
REMARK  107  A    between atoms: _260  and  _261
REMARK  108  A    between atoms: _263  and  _265
REMARK  109  A    between atoms: _265  and  _266
REMARK  110  A    between atoms: _265  and  _268
REMARK  111  A    between atoms: _268  and  _269
REMARK  112  A    between atoms: _269  and  _270
REMARK  113  A    between atoms: _270  and  _271
REMARK  114  A    between atoms: _280  and  _282
REMARK  115  A    between atoms: _282  and  _283
REMARK  116  A    between atoms: _282  and  _285
REMARK  117  A    between atoms: _285  and  _286
REMARK  118  A    between atoms: _286  and  _287
REMARK  119  A    between atoms: _287  and  _288
REMARK  120  A    between atoms: _297  and  _299
REMARK  121  A    between atoms: _299  and  _300
REMARK  122  A    between atoms: _299  and  _302
REMARK  123  A    between atoms: _302  and  _303
REMARK  124  A    between atoms: _306  and  _308
REMARK  125  A    between atoms: _308  and  _309
REMARK  126  A    between atoms: _308  and  _311
REMARK  127  A    between atoms: _311  and  _312
REMARK  128  A    between atoms: _315  and  _317
REMARK  129  A    between atoms: _317  and  _318
REMARK  130  A    between atoms: _317  and  _320
REMARK  131  A    between atoms: _320  and  _321
REMARK  132  A    between atoms: _324  and  _326
REMARK  133  A    between atoms: _326  and  _327
REMARK  134  A    between atoms: _326  and  _329
REMARK  135  A    between atoms: _329  and  _330
REMARK  136  A    between atoms: _333  and  _335
REMARK  137  A    between atoms: _335  and  _336
REMARK  138  A    between atoms: _338  and  _340
REMARK  139  A    between atoms: _340  and  _341
REMARK  140  A    between atoms: _344  and  _346
REMARK  141  A    between atoms: _346  and  _347
REMARK  142  A    between atoms: _346  and  _349
REMARK  143  A    between atoms: _349  and  _350
REMARK  144  A    between atoms: _353  and  _355
REMARK  145  A    between atoms: _355  and  _356
REMARK  146  A    between atoms: _355  and  _358
REMARK  147  A    between atoms: _358  and  _359
REMARK  148  A    between atoms: _362  and  _364
REMARK  149  A    between atoms: _364  and  _365
REMARK  150  A    between atoms: _364  and  _367
REMARK  151  A    between atoms: _367  and  _368
REMARK  152  A    between atoms: _371  and  _373
REMARK  153  A    between atoms: _373  and  _374
REMARK  154  A    between atoms: _373  and  _376
REMARK  155  A    between atoms: _379  and  _381
REMARK  156  A    between atoms: _381  and  _382
REMARK  157  A    between atoms: _381  and  _384
REMARK  158  A    between atoms: _384  and  _385
REMARK  159  A    between atoms: _388  and  _390
REMARK  160  A    between atoms: _390  and  _391
REMARK  161  A    between atoms: _390  and  _393
REMARK  162  A    between atoms: _393  and  _394
REMARK  163  A    between atoms: _394  and  _395
REMARK  164  A    between atoms: _395  and  _396
REMARK  165  A    between atoms: _396  and  _397
REMARK  166  A    between atoms: _401  and  _403
REMARK  167  A    between atoms: _403  and  _404
REMARK  168  A    between atoms: _403  and  _406
REMARK  169  A    between atoms: _406  and  _407
REMARK  170  A    between atoms: _407  and  _408
REMARK  171  A    between atoms: _410  and  _412
REMARK  172  A    between atoms: _412  and  _413
REMARK  173  A    between atoms: _412  and  _415
REMARK  174  A    between atoms: _415  and  _416
REMARK  175  A    between atoms: _419  and  _421
REMARK  176  A    between atoms: _421  and  _422
REMARK  177  A    between atoms: _424  and  _426
REMARK  178  A    between atoms: _426  and  _427
REMARK  179  A    between atoms: _429  and  _431
REMARK  180  A    between atoms: _431  and  _432
REMARK  181  A    between atoms: _431  and  _434
REMARK  182  A    between atoms: _434  and  _435
REMARK  183  A    between atoms: _438  and  _440
REMARK  184  A    between atoms: _440  and  _441
REMARK  185  A    between atoms: _443  and  _445
REMARK  186  A    between atoms: _445  and  _446
REMARK  187  A    between atoms: _448  and  _450
REMARK  188  A    between atoms: _450  and  _451
REMARK  189  A    between atoms: _450  and  _453
REMARK  190  A    between atoms: _453  and  _454
REMARK  191  A    between atoms: _460  and  _462
REMARK  192  A    between atoms: _462  and  _463
REMARK  193  A    between atoms: _462  and  _465
REMARK  194  A    between atoms: _465  and  _466
REMARK  195  A    between atoms: _469  and  _471
REMARK  196  A    between atoms: _471  and  _472
REMARK  197  A    between atoms: _471  and  _474
REMARK  198  A    between atoms: _477  and  _479
REMARK  199  A    between atoms: _479  and  _480
REMARK  200  A    between atoms: _479  and  _482
REMARK  201  A    between atoms: _482  and  _483
REMARK  202  A    between atoms: _487  and  _488
REMARK  203  A    between atoms: _493  and  _495
REMARK  204  A    between atoms: _495  and  _496
REMARK  205  A    between atoms: _495  and  _498
REMARK  206  A    between atoms: _498  and  _499
REMARK  207  A    between atoms: _503  and  _504
REMARK  208  A    between atoms: _509  and  _511
REMARK  209  A    between atoms: _511  and  _512
REMARK  210  A    between atoms: _511  and  _514
REMARK  211  A    between atoms: _517  and  _519
REMARK  212  A    between atoms: _519  and  _520
REMARK  213  A    between atoms: _519  and  _522
REMARK  214  A    between atoms: _522  and  _523
REMARK  215  A    between atoms: _528  and  _530
REMARK  216  A    between atoms: _530  and  _531
REMARK  217  A    between atoms: _530  and  _533
REMARK  218  A    between atoms: _533  and  _534
REMARK  219  A    between atoms: _537  and  _539
REMARK  220  A    between atoms: _539  and  _540
REMARK  221  A    between atoms: _539  and  _542
REMARK  222  A    between atoms: _542  and  _543
REMARK  223  A    between atoms: _546  and  _548
REMARK  224  A    between atoms: _548  and  _549
REMARK  225  A    between atoms: _551  and  _553
REMARK  226  A    between atoms: _553  and  _554
REMARK  227  A    between atoms: _553  and  _556
REMARK  228  A    between atoms: _556  and  _557
REMARK  229  A    between atoms: _557  and  _558
REMARK  230  A    between atoms: _558  and  _559
REMARK  231  A    between atoms: _568  and  _570
REMARK  232  A    between atoms: _570  and  _571
REMARK  233  A    between atoms: _570  and  _573
REMARK  234  A    between atoms: _573  and  _574
REMARK                            x       y       z     vdW  Elec       q    Type
REMARK                         _______ _______ _______ _____ _____    ______ ____
ROOT
ATOM      1  O   HOH     1      17.737 -25.791 -14.807  0.00  0.00    +0.000 OA
ENDROOT
TORSDOF 0
REMARK  Name = ../refined-set-2016/2o4s/2o4s_pocket.pdb
REMARK  234 active torsions:
REMARK  status: ('A' for Active; 'I' for Inactive)
REMARK    1  A    between atoms: _1  and  _3
REMARK    2  A    between atoms: _3  and  _4
REMARK    3  A    between atoms: _3  and  _6
REMARK    4  A    between atoms: _6  and  _7
REMARK    5  A    between atoms: _7  and  _8
REMARK    6  A    between atoms: _8  and  _9
REMARK    7  A    between atoms: _18  and  _20
REMARK    8  A    between atoms: _20  and  _21
REMARK    9  A    between atoms: _20  and  _23
REMARK   10  A    between atoms: _23  and  _24
REMARK   11  A    between atoms: _27  and  _29
REMARK   12  A    between atoms: _29  and  _30
REMARK   13  A    between atoms: _29  and  _32
REMARK   14  A    between atoms: _32  and  _33
REMARK   15  A    between atoms: _36  and  _38
REMARK   16  A    between atoms: _38  and  _39
REMARK   17  A    between atoms: _38  and  _41
REMARK   18  A    between atoms: _41  and  _42
REMARK   19  A    between atoms: _45  and  _47
REMARK   20  A    between atoms: _47  and  _48
REMARK   21  A    between atoms: _47  and  _50
REMARK   22  A    between atoms: _50  and  _51
REMARK   23  A    between atoms: _54  and  _56
REMARK   24  A    between atoms: _56  and  _57
REMARK   25  A    between atoms: _59  and  _61
REMARK   26  A    between atoms: _61  and  _62
REMARK   27  A    between atoms: _65  and  _67
REMARK   28  A    between atoms: _67  and  _68
REMARK   29  A    between atoms: _67  and  _70
REMARK   30  A    between atoms: _70  and  _71
REMARK   31  A    between atoms: _74  and  _76
REMARK   32  A    between atoms: _76  and  _77
REMARK   33  A    between atoms: _76  and  _79
REMARK   34  A    between atoms: _79  and  _80
REMARK   35  A    between atoms: _83  and  _85
REMARK   36  A    between atoms: _85  and  _86
REMARK   37  A    between atoms: _85  and  _88
REMARK   38  A    between atoms: _88  and  _89
REMARK   39  A    between atoms: _92  and  _94
REMARK   40  A    between atoms: _94  and  _95
REMARK   41  A    between atoms: _94  and  _97
REMARK   42  A    between atoms: _100  and  _102
REMARK   43  A    between atoms: _102  and  _103
REMARK   44  A    between atoms: _102  and  _105
REMARK   45  A    between atoms: _105  and  _106
REMARK   46  A    between atoms: _106  and  _107
REMARK   47  A    between atoms: _107  and  _108
REMARK   48  A    between atoms: _108  and  _109
REMARK   49  A    between atoms: _113  and  _115
REMARK   50  A    between atoms: _115  and  _116
REMARK   51  A    between atoms: _115  and  _118
REMARK   52  A    between atoms: _118  and  _119
REMARK   53  A    between atoms: _119  and  _120
REMARK   54  A    between atoms: _122  and  _124
REMARK   55  A    between atoms: _124  and  _125
REMARK   56  A    between atoms: _124  and  _127
REMARK   57  A    between atoms: _127  and  _128
REMARK   58  A    between atoms: _131  and  _133
REMARK   59  A    between atoms: _133  and  _134
REMARK   60  A    between atoms: _136  and  _138
REMARK   61  A    between atoms: _138  and  _139
REMARK   62  A    between atoms: _141  and  _143
REMARK   63  A    between atoms: _143  and  _144
REMARK   64  A    between atoms: _143  and  _146
REMARK   65  A    between atoms: _146  and  _147
REMARK   66  A    between atoms: _150  and  _152
REMARK   67  A    between atoms: _152  and  _153
REMARK   68  A    between atoms: _155  and  _157
REMARK   69  A    between atoms: _157  and  _158
REMARK   70  A    between atoms: _160  and  _162
REMARK   71  A    between atoms: _162  and  _163
REMARK   72  A    between atoms: _162  and  _165
REMARK   73  A    between atoms: _165  and  _166
REMARK   74  A    between atoms: _172  and  _174
REMARK   75  A    between atoms: _174  and  _175
REMARK   76  A    between atoms: _174  and  _177
REMARK   77  A    between atoms: _177  and  _178
REMARK   78  A    between atoms: _181  and  _183
REMARK   79  A    between atoms: _183  and  _184
REMARK   80  A    between atoms: _183  and  _186
REMARK   81  A    between atoms: _189  and  _191
REMARK   82  A    between atoms: _191  and  _192
REMARK   83  A    between atoms: _191  and  _194
REMARK   84  A    between atoms: _194  and  _195
REMARK   85  A    between atoms: _199  and  _200
REMARK   86  A    between atoms: _205  and  _207
REMARK   87  A    between atoms: _207  and  _208
REMARK   88  A    between atoms: _207  and  _210
REMARK   89  A    between atoms: _210  and  _211
REMARK   90  A    between atoms: _215  and  _216
REMARK   91  A    between atoms: _221  and  _223
REMARK   92  A    between atoms: _223  and  _224
REMARK   93  A    between atoms: _223  and  _226
REMARK   94  A    between atoms: _229  and  _231
REMARK   95  A    between atoms: _231  and  _232
REMARK   96  A    between atoms: _231  and  _234
REMARK   97  A    between atoms: _234  and  _235
REMARK   98  A    between atoms: _240  and  _242
REMARK   99  A    between atoms: _242  and  _243
REMARK  100  A    between atoms: _242  and  _245
REMARK  101  A    between atoms: _245  and  _246
REMARK  102  A    between atoms: _249  and  _251
REMARK  103  A    between atoms: _251  and  _252
REMARK  104  A    between atoms: _251  and  _254
REMARK  105  A    between atoms: _254  and  _255
REMARK  106  A    between atoms: _258  and  _260
REMARK  107  A    between atoms: _260  and  _261
REMARK  108  A    between atoms: _263  and  _265
REMARK  109  A    between atoms: _265  and  _266
REMARK  110  A    between atoms: _265  and  _268
REMARK  111  A    between atoms: _268  and  _269
REMARK  112  A    between atoms: _269  and  _270
REMARK  113  A    between atoms: _270  and  _271
REMARK  114  A    between atoms: _280  and  _282
REMARK  115  A    between atoms: _282  and  _283
REMARK  116  A    between atoms: _282  and  _285
REMARK  117  A    between atoms: _285  and  _286
REMARK  118  A    between atoms: _286  and  _287
REMARK  119  A    between atoms: _287  and  _288
REMARK  120  A    between atoms: _297  and  _299
REMARK  121  A    between atoms: _299  and  _300
REMARK  122  A    between atoms: _299  and  _302
REMARK  123  A    between atoms: _302  and  _303
REMARK  124  A    between atoms: _306  and  _308
REMARK  125  A    between atoms: _308  and  _309
REMARK  126  A    between atoms: _308  and  _311
REMARK  127  A    between atoms: _311  and  _312
REMARK  128  A    between atoms: _315  and  _317
REMARK  129  A    between atoms: _317  and  _318
REMARK  130  A    between atoms: _317  and  _320
REMARK  131  A    between atoms: _320  and  _321
REMARK  132  A    between atoms: _324  and  _326
REMARK  133  A    between atoms: _326  and  _327
REMARK  134  A    between atoms: _326  and  _329
REMARK  135  A    between atoms: _329  and  _330
REMARK  136  A    between atoms: _333  and  _335
REMARK  137  A    between atoms: _335  and  _336
REMARK  138  A    between atoms: _338  and  _340
REMARK  139  A    between atoms: _340  and  _341
REMARK  140  A    between atoms: _344  and  _346
REMARK  141  A    between atoms: _346  and  _347
REMARK  142  A    between atoms: _346  and  _349
REMARK  143  A    between atoms: _349  and  _350
REMARK  144  A    between atoms: _353  and  _355
REMARK  145  A    between atoms: _355  and  _356
REMARK  146  A    between atoms: _355  and  _358
REMARK  147  A    between atoms: _358  and  _359
REMARK  148  A    between atoms: _362  and  _364
REMARK  149  A    between atoms: _364  and  _365
REMARK  150  A    between atoms: _364  and  _367
REMARK  151  A    between atoms: _367  and  _368
REMARK  152  A    between atoms: _371  and  _373
REMARK  153  A    between atoms: _373  and  _374
REMARK  154  A    between atoms: _373  and  _376
REMARK  155  A    between atoms: _379  and  _381
REMARK  156  A    between atoms: _381  and  _382
REMARK  157  A    between atoms: _381  and  _384
REMARK  158  A    between atoms: _384  and  _385
REMARK  159  A    between atoms: _388  and  _390
REMARK  160  A    between atoms: _390  and  _391
REMARK  161  A    between atoms: _390  and  _393
REMARK  162  A    between atoms: _393  and  _394
REMARK  163  A    between atoms: _394  and  _395
REMARK  164  A    between atoms: _395  and  _396
REMARK  165  A    between atoms: _396  and  _397
REMARK  166  A    between atoms: _401  and  _403
REMARK  167  A    between atoms: _403  and  _404
REMARK  168  A    between atoms: _403  and  _406
REMARK  169  A    between atoms: _406  and  _407
REMARK  170  A    between atoms: _407  and  _408
REMARK  171  A    between atoms: _410  and  _412
REMARK  172  A    between atoms: _412  and  _413
REMARK  173  A    between atoms: _412  and  _415
REMARK  174  A    between atoms: _415  and  _416
REMARK  175  A    between atoms: _419  and  _421
REMARK  176  A    between atoms: _421  and  _422
REMARK  177  A    between atoms: _424  and  _426
REMARK  178  A    between atoms: _426  and  _427
REMARK  179  A    between atoms: _429  and  _431
REMARK  180  A    between atoms: _431  and  _432
REMARK  181  A    between atoms: _431  and  _434
REMARK  182  A    between atoms: _434  and  _435
REMARK  183  A    between atoms: _438  and  _440
REMARK  184  A    between atoms: _440  and  _441
REMARK  185  A    between atoms: _443  and  _445
REMARK  186  A    between atoms: _445  and  _446
REMARK  187  A    between atoms: _448  and  _450
REMARK  188  A    between atoms: _450  and  _451
REMARK  189  A    between atoms: _450  and  _453
REMARK  190  A    between atoms: _453  and  _454
REMARK  191  A    between atoms: _460  and  _462
REMARK  192  A    between atoms: _462  and  _463
REMARK  193  A    between atoms: _462  and  _465
REMARK  194  A    between atoms: _465  and  _466
REMARK  195  A    between atoms: _469  and  _471
REMARK  196  A    between atoms: _471  and  _472
REMARK  197  A    between atoms: _471  and  _474
REMARK  198  A    between atoms: _477  and  _479
REMARK  199  A    between atoms: _479  and  _480
REMARK  200  A    between atoms: _479  and  _482
REMARK  201  A    between atoms: _482  and  _483
REMARK  202  A    between atoms: _487  and  _488
REMARK  203  A    between atoms: _493  and  _495
REMARK  204  A    between atoms: _495  and  _496
REMARK  205  A    between atoms: _495  and  _498
REMARK  206  A    between atoms: _498  and  _499
REMARK  207  A    between atoms: _503  and  _504
REMARK  208  A    between atoms: _509  and  _511
REMARK  209  A    between atoms: _511  and  _512
REMARK  210  A    between atoms: _511  and  _514
REMARK  211  A    between atoms: _517  and  _519
REMARK  212  A    between atoms: _519  and  _520
REMARK  213  A    between atoms: _519  and  _522
REMARK  214  A    between atoms: _522  and  _523
REMARK  215  A    between atoms: _528  and  _530
REMARK  216  A    between atoms: _530  and  _531
REMARK  217  A    between atoms: _530  and  _533
REMARK  218  A    between atoms: _533  and  _534
REMARK  219  A    between atoms: _537  and  _539
REMARK  220  A    between atoms: _539  and  _540
REMARK  221  A    between atoms: _539  and  _542
REMARK  222  A    between atoms: _542  and  _543
REMARK  223  A    between atoms: _546  and  _548
REMARK  224  A    between atoms: _548  and  _549
REMARK  225  A    between atoms: _551  and  _553
REMARK  226  A    between atoms: _553  and  _554
REMARK  227  A    between atoms: _553  and  _556
REMARK  228  A    between atoms: _556  and  _557
REMARK  229  A    between atoms: _557  and  _558
REMARK  230  A    between atoms: _558  and  _559
REMARK  231  A    between atoms: _568  and  _570
REMARK  232  A    between atoms: _570  and  _571
REMARK  233  A    between atoms: _570  and  _573
REMARK  234  A    between atoms: _573  and  _574
REMARK                            x       y       z     vdW  Elec       q    Type
REMARK                         _______ _______ _______ _____ _____    ______ ____
ROOT
ATOM      1  O   HOH     1      25.348 -23.474 -22.905  0.00  0.00    +0.000 OA
ENDROOT
TORSDOF 0
REMARK  Name = ../refined-set-2016/2o4s/2o4s_pocket.pdb
REMARK  234 active torsions:
REMARK  status: ('A' for Active; 'I' for Inactive)
REMARK    1  A    between atoms: _1  and  _3
REMARK    2  A    between atoms: _3  and  _4
REMARK    3  A    between atoms: _3  and  _6
REMARK    4  A    between atoms: _6  and  _7
REMARK    5  A    between atoms: _7  and  _8
REMARK    6  A    between atoms: _8  and  _9
REMARK    7  A    between atoms: _18  and  _20
REMARK    8  A    between atoms: _20  and  _21
REMARK    9  A    between atoms: _20  and  _23
REMARK   10  A    between atoms: _23  and  _24
REMARK   11  A    between atoms: _27  and  _29
REMARK   12  A    between atoms: _29  and  _30
REMARK   13  A    between atoms: _29  and  _32
REMARK   14  A    between atoms: _32  and  _33
REMARK   15  A    between atoms: _36  and  _38
REMARK   16  A    between atoms: _38  and  _39
REMARK   17  A    between atoms: _38  and  _41
REMARK   18  A    between atoms: _41  and  _42
REMARK   19  A    between atoms: _45  and  _47
REMARK   20  A    between atoms: _47  and  _48
REMARK   21  A    between atoms: _47  and  _50
REMARK   22  A    between atoms: _50  and  _51
REMARK   23  A    between atoms: _54  and  _56
REMARK   24  A    between atoms: _56  and  _57
REMARK   25  A    between atoms: _59  and  _61
REMARK   26  A    between atoms: _61  and  _62
REMARK   27  A    between atoms: _65  and  _67
REMARK   28  A    between atoms: _67  and  _68
REMARK   29  A    between atoms: _67  and  _70
REMARK   30  A    between atoms: _70  and  _71
REMARK   31  A    between atoms: _74  and  _76
REMARK   32  A    between atoms: _76  and  _77
REMARK   33  A    between atoms: _76  and  _79
REMARK   34  A    between atoms: _79  and  _80
REMARK   35  A    between atoms: _83  and  _85
REMARK   36  A    between atoms: _85  and  _86
REMARK   37  A    between atoms: _85  and  _88
REMARK   38  A    between atoms: _88  and  _89
REMARK   39  A    between atoms: _92  and  _94
REMARK   40  A    between atoms: _94  and  _95
REMARK   41  A    between atoms: _94  and  _97
REMARK   42  A    between atoms: _100  and  _102
REMARK   43  A    between atoms: _102  and  _103
REMARK   44  A    between atoms: _102  and  _105
REMARK   45  A    between atoms: _105  and  _106
REMARK   46  A    between atoms: _106  and  _107
REMARK   47  A    between atoms: _107  and  _108
REMARK   48  A    between atoms: _108  and  _109
REMARK   49  A    between atoms: _113  and  _115
REMARK   50  A    between atoms: _115  and  _116
REMARK   51  A    between atoms: _115  and  _118
REMARK   52  A    between atoms: _118  and  _119
REMARK   53  A    between atoms: _119  and  _120
REMARK   54  A    between atoms: _122  and  _124
REMARK   55  A    between atoms: _124  and  _125
REMARK   56  A    between atoms: _124  and  _127
REMARK   57  A    between atoms: _127  and  _128
REMARK   58  A    between atoms: _131  and  _133
REMARK   59  A    between atoms: _133  and  _134
REMARK   60  A    between atoms: _136  and  _138
REMARK   61  A    between atoms: _138  and  _139
REMARK   62  A    between atoms: _141  and  _143
REMARK   63  A    between atoms: _143  and  _144
REMARK   64  A    between atoms: _143  and  _146
REMARK   65  A    between atoms: _146  and  _147
REMARK   66  A    between atoms: _150  and  _152
REMARK   67  A    between atoms: _152  and  _153
REMARK   68  A    between atoms: _155  and  _157
REMARK   69  A    between atoms: _157  and  _158
REMARK   70  A    between atoms: _160  and  _162
REMARK   71  A    between atoms: _162  and  _163
REMARK   72  A    between atoms: _162  and  _165
REMARK   73  A    between atoms: _165  and  _166
REMARK   74  A    between atoms: _172  and  _174
REMARK   75  A    between atoms: _174  and  _175
REMARK   76  A    between atoms: _174  and  _177
REMARK   77  A    between atoms: _177  and  _178
REMARK   78  A    between atoms: _181  and  _183
REMARK   79  A    between atoms: _183  and  _184
REMARK   80  A    between atoms: _183  and  _186
REMARK   81  A    between atoms: _189  and  _191
REMARK   82  A    between atoms: _191  and  _192
REMARK   83  A    between atoms: _191  and  _194
REMARK   84  A    between atoms: _194  and  _195
REMARK   85  A    between atoms: _199  and  _200
REMARK   86  A    between atoms: _205  and  _207
REMARK   87  A    between atoms: _207  and  _208
REMARK   88  A    between atoms: _207  and  _210
REMARK   89  A    between atoms: _210  and  _211
REMARK   90  A    between atoms: _215  and  _216
REMARK   91  A    between atoms: _221  and  _223
REMARK   92  A    between atoms: _223  and  _224
REMARK   93  A    between atoms: _223  and  _226
REMARK   94  A    between atoms: _229  and  _231
REMARK   95  A    between atoms: _231  and  _232
REMARK   96  A    between atoms: _231  and  _234
REMARK   97  A    between atoms: _234  and  _235
REMARK   98  A    between atoms: _240  and  _242
REMARK   99  A    between atoms: _242  and  _243
REMARK  100  A    between atoms: _242  and  _245
REMARK  101  A    between atoms: _245  and  _246
REMARK  102  A    between atoms: _249  and  _251
REMARK  103  A    between atoms: _251  and  _252
REMARK  104  A    between atoms: _251  and  _254
REMARK  105  A    between atoms: _254  and  _255
REMARK  106  A    between atoms: _258  and  _260
REMARK  107  A    between atoms: _260  and  _261
REMARK  108  A    between atoms: _263  and  _265
REMARK  109  A    between atoms: _265  and  _266
REMARK  110  A    between atoms: _265  and  _268
REMARK  111  A    between atoms: _268  and  _269
REMARK  112  A    between atoms: _269  and  _270
REMARK  113  A    between atoms: _270  and  _271
REMARK  114  A    between atoms: _280  and  _282
REMARK  115  A    between atoms: _282  and  _283
REMARK  116  A    between atoms: _282  and  _285
REMARK  117  A    between atoms: _285  and  _286
REMARK  118  A    between atoms: _286  and  _287
REMARK  119  A    between atoms: _287  and  _288
REMARK  120  A    between atoms: _297  and  _299
REMARK  121  A    between atoms: _299  and  _300
REMARK  122  A    between atoms: _299  and  _302
REMARK  123  A    between atoms: _302  and  _303
REMARK  124  A    between atoms: _306  and  _308
REMARK  125  A    between atoms: _308  and  _309
REMARK  126  A    between atoms: _308  and  _311
REMARK  127  A    between atoms: _311  and  _312
REMARK  128  A    between atoms: _315  and  _317
REMARK  129  A    between atoms: _317  and  _318
REMARK  130  A    between atoms: _317  and  _320
REMARK  131  A    between atoms: _320  and  _321
REMARK  132  A    between atoms: _324  and  _326
REMARK  133  A    between atoms: _326  and  _327
REMARK  134  A    between atoms: _326  and  _329
REMARK  135  A    between atoms: _329  and  _330
REMARK  136  A    between atoms: _333  and  _335
REMARK  137  A    between atoms: _335  and  _336
REMARK  138  A    between atoms: _338  and  _340
REMARK  139  A    between atoms: _340  and  _341
REMARK  140  A    between atoms: _344  and  _346
REMARK  141  A    between atoms: _346  and  _347
REMARK  142  A    between atoms: _346  and  _349
REMARK  143  A    between atoms: _349  and  _350
REMARK  144  A    between atoms: _353  and  _355
REMARK  145  A    between atoms: _355  and  _356
REMARK  146  A    between atoms: _355  and  _358
REMARK  147  A    between atoms: _358  and  _359
REMARK  148  A    between atoms: _362  and  _364
REMARK  149  A    between atoms: _364  and  _365
REMARK  150  A    between atoms: _364  and  _367
REMARK  151  A    between atoms: _367  and  _368
REMARK  152  A    between atoms: _371  and  _373
REMARK  153  A    between atoms: _373  and  _374
REMARK  154  A    between atoms: _373  and  _376
REMARK  155  A    between atoms: _379  and  _381
REMARK  156  A    between atoms: _381  and  _382
REMARK  157  A    between atoms: _381  and  _384
REMARK  158  A    between atoms: _384  and  _385
REMARK  159  A    between atoms: _388  and  _390
REMARK  160  A    between atoms: _390  and  _391
REMARK  161  A    between atoms: _390  and  _393
REMARK  162  A    between atoms: _393  and  _394
REMARK  163  A    between atoms: _394  and  _395
REMARK  164  A    between atoms: _395  and  _396
REMARK  165  A    between atoms: _396  and  _397
REMARK  166  A    between atoms: _401  and  _403
REMARK  167  A    between atoms: _403  and  _404
REMARK  168  A    between atoms: _403  and  _406
REMARK  169  A    between atoms: _406  and  _407
REMARK  170  A    between atoms: _407  and  _408
REMARK  171  A    between atoms: _410  and  _412
REMARK  172  A    between atoms: _412  and  _413
REMARK  173  A    between atoms: _412  and  _415
REMARK  174  A    between atoms: _415  and  _416
REMARK  175  A    between atoms: _419  and  _421
REMARK  176  A    between atoms: _421  and  _422
REMARK  177  A    between atoms: _424  and  _426
REMARK  178  A    between atoms: _426  and  _427
REMARK  179  A    between atoms: _429  and  _431
REMARK  180  A    between atoms: _431  and  _432
REMARK  181  A    between atoms: _431  and  _434
REMARK  182  A    between atoms: _434  and  _435
REMARK  183  A    between atoms: _438  and  _440
REMARK  184  A    between atoms: _440  and  _441
REMARK  185  A    between atoms: _443  and  _445
REMARK  186  A    between atoms: _445  and  _446
REMARK  187  A    between atoms: _448  and  _450
REMARK  188  A    between atoms: _450  and  _451
REMARK  189  A    between atoms: _450  and  _453
REMARK  190  A    between atoms: _453  and  _454
REMARK  191  A    between atoms: _460  and  _462
REMARK  192  A    between atoms: _462  and  _463
REMARK  193  A    between atoms: _462  and  _465
REMARK  194  A    between atoms: _465  and  _466
REMARK  195  A    between atoms: _469  and  _471
REMARK  196  A    between atoms: _471  and  _472
REMARK  197  A    between atoms: _471  and  _474
REMARK  198  A    between atoms: _477  and  _479
REMARK  199  A    between atoms: _479  and  _480
REMARK  200  A    between atoms: _479  and  _482
REMARK  201  A    between atoms: _482  and  _483
REMARK  202  A    between atoms: _487  and  _488
REMARK  203  A    between atoms: _493  and  _495
REMARK  204  A    between atoms: _495  and  _496
REMARK  205  A    between atoms: _495  and  _498
REMARK  206  A    between atoms: _498  and  _499
REMARK  207  A    between atoms: _503  and  _504
REMARK  208  A    between atoms: _509  and  _511
REMARK  209  A    between atoms: _511  and  _512
REMARK  210  A    between atoms: _511  and  _514
REMARK  211  A    between atoms: _517  and  _519
REMARK  212  A    between atoms: _519  and  _520
REMARK  213  A    between atoms: _519  and  _522
REMARK  214  A    between atoms: _522  and  _523
REMARK  215  A    between atoms: _528  and  _530
REMARK  216  A    between atoms: _530  and  _531
REMARK  217  A    between atoms: _530  and  _533
REMARK  218  A    between atoms: _533  and  _534
REMARK  219  A    between atoms: _537  and  _539
REMARK  220  A    between atoms: _539  and  _540
REMARK  221  A    between atoms: _539  and  _542
REMARK  222  A    between atoms: _542  and  _543
REMARK  223  A    between atoms: _546  and  _548
REMARK  224  A    between atoms: _548  and  _549
REMARK  225  A    between atoms: _551  and  _553
REMARK  226  A    between atoms: _553  and  _554
REMARK  227  A    between atoms: _553  and  _556
REMARK  228  A    between atoms: _556  and  _557
REMARK  229  A    between atoms: _557  and  _558
REMARK  230  A    between atoms: _558  and  _559
REMARK  231  A    between atoms: _568  and  _570
REMARK  232  A    between atoms: _570  and  _571
REMARK  233  A    between atoms: _570  and  _573
REMARK  234  A    between atoms: _573  and  _574
REMARK                            x       y       z     vdW  Elec       q    Type
REMARK                         _______ _______ _______ _____ _____    ______ ____
ROOT
ATOM      1  O   HOH     1      16.513 -26.356 -12.237  0.00  0.00    +0.000 OA
ENDROOT
TORSDOF 0
REMARK  Name = ../refined-set-2016/2o4s/2o4s_pocket.pdb
REMARK  234 active torsions:
REMARK  status: ('A' for Active; 'I' for Inactive)
REMARK    1  A    between atoms: _1  and  _3
REMARK    2  A    between atoms: _3  and  _4
REMARK    3  A    between atoms: _3  and  _6
REMARK    4  A    between atoms: _6  and  _7
REMARK    5  A    between atoms: _7  and  _8
REMARK    6  A    between atoms: _8  and  _9
REMARK    7  A    between atoms: _18  and  _20
REMARK    8  A    between atoms: _20  and  _21
REMARK    9  A    between atoms: _20  and  _23
REMARK   10  A    between atoms: _23  and  _24
REMARK   11  A    between atoms: _27  and  _29
REMARK   12  A    between atoms: _29  and  _30
REMARK   13  A    between atoms: _29  and  _32
REMARK   14  A    between atoms: _32  and  _33
REMARK   15  A    between atoms: _36  and  _38
REMARK   16  A    between atoms: _38  and  _39
REMARK   17  A    between atoms: _38  and  _41
REMARK   18  A    between atoms: _41  and  _42
REMARK   19  A    between atoms: _45  and  _47
REMARK   20  A    between atoms: _47  and  _48
REMARK   21  A    between atoms: _47  and  _50
REMARK   22  A    between atoms: _50  and  _51
REMARK   23  A    between atoms: _54  and  _56
REMARK   24  A    between atoms: _56  and  _57
REMARK   25  A    between atoms: _59  and  _61
REMARK   26  A    between atoms: _61  and  _62
REMARK   27  A    between atoms: _65  and  _67
REMARK   28  A    between atoms: _67  and  _68
REMARK   29  A    between atoms: _67  and  _70
REMARK   30  A    between atoms: _70  and  _71
REMARK   31  A    between atoms: _74  and  _76
REMARK   32  A    between atoms: _76  and  _77
REMARK   33  A    between atoms: _76  and  _79
REMARK   34  A    between atoms: _79  and  _80
REMARK   35  A    between atoms: _83  and  _85
REMARK   36  A    between atoms: _85  and  _86
REMARK   37  A    between atoms: _85  and  _88
REMARK   38  A    between atoms: _88  and  _89
REMARK   39  A    between atoms: _92  and  _94
REMARK   40  A    between atoms: _94  and  _95
REMARK   41  A    between atoms: _94  and  _97
REMARK   42  A    between atoms: _100  and  _102
REMARK   43  A    between atoms: _102  and  _103
REMARK   44  A    between atoms: _102  and  _105
REMARK   45  A    between atoms: _105  and  _106
REMARK   46  A    between atoms: _106  and  _107
REMARK   47  A    between atoms: _107  and  _108
REMARK   48  A    between atoms: _108  and  _109
REMARK   49  A    between atoms: _113  and  _115
REMARK   50  A    between atoms: _115  and  _116
REMARK   51  A    between atoms: _115  and  _118
REMARK   52  A    between atoms: _118  and  _119
REMARK   53  A    between atoms: _119  and  _120
REMARK   54  A    between atoms: _122  and  _124
REMARK   55  A    between atoms: _124  and  _125
REMARK   56  A    between atoms: _124  and  _127
REMARK   57  A    between atoms: _127  and  _128
REMARK   58  A    between atoms: _131  and  _133
REMARK   59  A    between atoms: _133  and  _134
REMARK   60  A    between atoms: _136  and  _138
REMARK   61  A    between atoms: _138  and  _139
REMARK   62  A    between atoms: _141  and  _143
REMARK   63  A    between atoms: _143  and  _144
REMARK   64  A    between atoms: _143  and  _146
REMARK   65  A    between atoms: _146  and  _147
REMARK   66  A    between atoms: _150  and  _152
REMARK   67  A    between atoms: _152  and  _153
REMARK   68  A    between atoms: _155  and  _157
REMARK   69  A    between atoms: _157  and  _158
REMARK   70  A    between atoms: _160  and  _162
REMARK   71  A    between atoms: _162  and  _163
REMARK   72  A    between atoms: _162  and  _165
REMARK   73  A    between atoms: _165  and  _166
REMARK   74  A    between atoms: _172  and  _174
REMARK   75  A    between atoms: _174  and  _175
REMARK   76  A    between atoms: _174  and  _177
REMARK   77  A    between atoms: _177  and  _178
REMARK   78  A    between atoms: _181  and  _183
REMARK   79  A    between atoms: _183  and  _184
REMARK   80  A    between atoms: _183  and  _186
REMARK   81  A    between atoms: _189  and  _191
REMARK   82  A    between atoms: _191  and  _192
REMARK   83  A    between atoms: _191  and  _194
REMARK   84  A    between atoms: _194  and  _195
REMARK   85  A    between atoms: _199  and  _200
REMARK   86  A    between atoms: _205  and  _207
REMARK   87  A    between atoms: _207  and  _208
REMARK   88  A    between atoms: _207  and  _210
REMARK   89  A    between atoms: _210  and  _211
REMARK   90  A    between atoms: _215  and  _216
REMARK   91  A    between atoms: _221  and  _223
REMARK   92  A    between atoms: _223  and  _224
REMARK   93  A    between atoms: _223  and  _226
REMARK   94  A    between atoms: _229  and  _231
REMARK   95  A    between atoms: _231  and  _232
REMARK   96  A    between atoms: _231  and  _234
REMARK   97  A    between atoms: _234  and  _235
REMARK   98  A    between atoms: _240  and  _242
REMARK   99  A    between atoms: _242  and  _243
REMARK  100  A    between atoms: _242  and  _245
REMARK  101  A    between atoms: _245  and  _246
REMARK  102  A    between atoms: _249  and  _251
REMARK  103  A    between atoms: _251  and  _252
REMARK  104  A    between atoms: _251  and  _254
REMARK  105  A    between atoms: _254  and  _255
REMARK  106  A    between atoms: _258  and  _260
REMARK  107  A    between atoms: _260  and  _261
REMARK  108  A    between atoms: _263  and  _265
REMARK  109  A    between atoms: _265  and  _266
REMARK  110  A    between atoms: _265  and  _268
REMARK  111  A    between atoms: _268  and  _269
REMARK  112  A    between atoms: _269  and  _270
REMARK  113  A    between atoms: _270  and  _271
REMARK  114  A    between atoms: _280  and  _282
REMARK  115  A    between atoms: _282  and  _283
REMARK  116  A    between atoms: _282  and  _285
REMARK  117  A    between atoms: _285  and  _286
REMARK  118  A    between atoms: _286  and  _287
REMARK  119  A    between atoms: _287  and  _288
REMARK  120  A    between atoms: _297  and  _299
REMARK  121  A    between atoms: _299  and  _300
REMARK  122  A    between atoms: _299  and  _302
REMARK  123  A    between atoms: _302  and  _303
REMARK  124  A    between atoms: _306  and  _308
REMARK  125  A    between atoms: _308  and  _309
REMARK  126  A    between atoms: _308  and  _311
REMARK  127  A    between atoms: _311  and  _312
REMARK  128  A    between atoms: _315  and  _317
REMARK  129  A    between atoms: _317  and  _318
REMARK  130  A    between atoms: _317  and  _320
REMARK  131  A    between atoms: _320  and  _321
REMARK  132  A    between atoms: _324  and  _326
REMARK  133  A    between atoms: _326  and  _327
REMARK  134  A    between atoms: _326  and  _329
REMARK  135  A    between atoms: _329  and  _330
REMARK  136  A    between atoms: _333  and  _335
REMARK  137  A    between atoms: _335  and  _336
REMARK  138  A    between atoms: _338  and  _340
REMARK  139  A    between atoms: _340  and  _341
REMARK  140  A    between atoms: _344  and  _346
REMARK  141  A    between atoms: _346  and  _347
REMARK  142  A    between atoms: _346  and  _349
REMARK  143  A    between atoms: _349  and  _350
REMARK  144  A    between atoms: _353  and  _355
REMARK  145  A    between atoms: _355  and  _356
REMARK  146  A    between atoms: _355  and  _358
REMARK  147  A    between atoms: _358  and  _359
REMARK  148  A    between atoms: _362  and  _364
REMARK  149  A    between atoms: _364  and  _365
REMARK  150  A    between atoms: _364  and  _367
REMARK  151  A    between atoms: _367  and  _368
REMARK  152  A    between atoms: _371  and  _373
REMARK  153  A    between atoms: _373  and  _374
REMARK  154  A    between atoms: _373  and  _376
REMARK  155  A    between atoms: _379  and  _381
REMARK  156  A    between atoms: _381  and  _382
REMARK  157  A    between atoms: _381  and  _384
REMARK  158  A    between atoms: _384  and  _385
REMARK  159  A    between atoms: _388  and  _390
REMARK  160  A    between atoms: _390  and  _391
REMARK  161  A    between atoms: _390  and  _393
REMARK  162  A    between atoms: _393  and  _394
REMARK  163  A    between atoms: _394  and  _395
REMARK  164  A    between atoms: _395  and  _396
REMARK  165  A    between atoms: _396  and  _397
REMARK  166  A    between atoms: _401  and  _403
REMARK  167  A    between atoms: _403  and  _404
REMARK  168  A    between atoms: _403  and  _406
REMARK  169  A    between atoms: _406  and  _407
REMARK  170  A    between atoms: _407  and  _408
REMARK  171  A    between atoms: _410  and  _412
REMARK  172  A    between atoms: _412  and  _413
REMARK  173  A    between atoms: _412  and  _415
REMARK  174  A    between atoms: _415  and  _416
REMARK  175  A    between atoms: _419  and  _421
REMARK  176  A    between atoms: _421  and  _422
REMARK  177  A    between atoms: _424  and  _426
REMARK  178  A    between atoms: _426  and  _427
REMARK  179  A    between atoms: _429  and  _431
REMARK  180  A    between atoms: _431  and  _432
REMARK  181  A    between atoms: _431  and  _434
REMARK  182  A    between atoms: _434  and  _435
REMARK  183  A    between atoms: _438  and  _440
REMARK  184  A    between atoms: _440  and  _441
REMARK  185  A    between atoms: _443  and  _445
REMARK  186  A    between atoms: _445  and  _446
REMARK  187  A    between atoms: _448  and  _450
REMARK  188  A    between atoms: _450  and  _451
REMARK  189  A    between atoms: _450  and  _453
REMARK  190  A    between atoms: _453  and  _454
REMARK  191  A    between atoms: _460  and  _462
REMARK  192  A    between atoms: _462  and  _463
REMARK  193  A    between atoms: _462  and  _465
REMARK  194  A    between atoms: _465  and  _466
REMARK  195  A    between atoms: _469  and  _471
REMARK  196  A    between atoms: _471  and  _472
REMARK  197  A    between atoms: _471  and  _474
REMARK  198  A    between atoms: _477  and  _479
REMARK  199  A    between atoms: _479  and  _480
REMARK  200  A    between atoms: _479  and  _482
REMARK  201  A    between atoms: _482  and  _483
REMARK  202  A    between atoms: _487  and  _488
REMARK  203  A    between atoms: _493  and  _495
REMARK  204  A    between atoms: _495  and  _496
REMARK  205  A    between atoms: _495  and  _498
REMARK  206  A    between atoms: _498  and  _499
REMARK  207  A    between atoms: _503  and  _504
REMARK  208  A    between atoms: _509  and  _511
REMARK  209  A    between atoms: _511  and  _512
REMARK  210  A    between atoms: _511  and  _514
REMARK  211  A    between atoms: _517  and  _519
REMARK  212  A    between atoms: _519  and  _520
REMARK  213  A    between atoms: _519  and  _522
REMARK  214  A    between atoms: _522  and  _523
REMARK  215  A    between atoms: _528  and  _530
REMARK  216  A    between atoms: _530  and  _531
REMARK  217  A    between atoms: _530  and  _533
REMARK  218  A    between atoms: _533  and  _534
REMARK  219  A    between atoms: _537  and  _539
REMARK  220  A    between atoms: _539  and  _540
REMARK  221  A    between atoms: _539  and  _542
REMARK  222  A    between atoms: _542  and  _543
REMARK  223  A    between atoms: _546  and  _548
REMARK  224  A    between atoms: _548  and  _549
REMARK  225  A    between atoms: _551  and  _553
REMARK  226  A    between atoms: _553  and  _554
REMARK  227  A    between atoms: _553  and  _556
REMARK  228  A    between atoms: _556  and  _557
REMARK  229  A    between atoms: _557  and  _558
REMARK  230  A    between atoms: _558  and  _559
REMARK  231  A    between atoms: _568  and  _570
REMARK  232  A    between atoms: _570  and  _571
REMARK  233  A    between atoms: _570  and  _573
REMARK  234  A    between atoms: _573  and  _574
REMARK                            x       y       z     vdW  Elec       q    Type
REMARK                         _______ _______ _______ _____ _____    ______ ____
ROOT
ATOM      1  O   HOH     1       6.956 -27.782 -19.743  0.00  0.00    +0.000 OA
ENDROOT
TORSDOF 0
REMARK  Name = ../refined-set-2016/2o4s/2o4s_pocket.pdb
REMARK  234 active torsions:
REMARK  status: ('A' for Active; 'I' for Inactive)
REMARK    1  A    between atoms: _1  and  _3
REMARK    2  A    between atoms: _3  and  _4
REMARK    3  A    between atoms: _3  and  _6
REMARK    4  A    between atoms: _6  and  _7
REMARK    5  A    between atoms: _7  and  _8
REMARK    6  A    between atoms: _8  and  _9
REMARK    7  A    between atoms: _18  and  _20
REMARK    8  A    between atoms: _20  and  _21
REMARK    9  A    between atoms: _20  and  _23
REMARK   10  A    between atoms: _23  and  _24
REMARK   11  A    between atoms: _27  and  _29
REMARK   12  A    between atoms: _29  and  _30
REMARK   13  A    between atoms: _29  and  _32
REMARK   14  A    between atoms: _32  and  _33
REMARK   15  A    between atoms: _36  and  _38
REMARK   16  A    between atoms: _38  and  _39
REMARK   17  A    between atoms: _38  and  _41
REMARK   18  A    between atoms: _41  and  _42
REMARK   19  A    between atoms: _45  and  _47
REMARK   20  A    between atoms: _47  and  _48
REMARK   21  A    between atoms: _47  and  _50
REMARK   22  A    between atoms: _50  and  _51
REMARK   23  A    between atoms: _54  and  _56
REMARK   24  A    between atoms: _56  and  _57
REMARK   25  A    between atoms: _59  and  _61
REMARK   26  A    between atoms: _61  and  _62
REMARK   27  A    between atoms: _65  and  _67
REMARK   28  A    between atoms: _67  and  _68
REMARK   29  A    between atoms: _67  and  _70
REMARK   30  A    between atoms: _70  and  _71
REMARK   31  A    between atoms: _74  and  _76
REMARK   32  A    between atoms: _76  and  _77
REMARK   33  A    between atoms: _76  and  _79
REMARK   34  A    between atoms: _79  and  _80
REMARK   35  A    between atoms: _83  and  _85
REMARK   36  A    between atoms: _85  and  _86
REMARK   37  A    between atoms: _85  and  _88
REMARK   38  A    between atoms: _88  and  _89
REMARK   39  A    between atoms: _92  and  _94
REMARK   40  A    between atoms: _94  and  _95
REMARK   41  A    between atoms: _94  and  _97
REMARK   42  A    between atoms: _100  and  _102
REMARK   43  A    between atoms: _102  and  _103
REMARK   44  A    between atoms: _102  and  _105
REMARK   45  A    between atoms: _105  and  _106
REMARK   46  A    between atoms: _106  and  _107
REMARK   47  A    between atoms: _107  and  _108
REMARK   48  A    between atoms: _108  and  _109
REMARK   49  A    between atoms: _113  and  _115
REMARK   50  A    between atoms: _115  and  _116
REMARK   51  A    between atoms: _115  and  _118
REMARK   52  A    between atoms: _118  and  _119
REMARK   53  A    between atoms: _119  and  _120
REMARK   54  A    between atoms: _122  and  _124
REMARK   55  A    between atoms: _124  and  _125
REMARK   56  A    between atoms: _124  and  _127
REMARK   57  A    between atoms: _127  and  _128
REMARK   58  A    between atoms: _131  and  _133
REMARK   59  A    between atoms: _133  and  _134
REMARK   60  A    between atoms: _136  and  _138
REMARK   61  A    between atoms: _138  and  _139
REMARK   62  A    between atoms: _141  and  _143
REMARK   63  A    between atoms: _143  and  _144
REMARK   64  A    between atoms: _143  and  _146
REMARK   65  A    between atoms: _146  and  _147
REMARK   66  A    between atoms: _150  and  _152
REMARK   67  A    between atoms: _152  and  _153
REMARK   68  A    between atoms: _155  and  _157
REMARK   69  A    between atoms: _157  and  _158
REMARK   70  A    between atoms: _160  and  _162
REMARK   71  A    between atoms: _162  and  _163
REMARK   72  A    between atoms: _162  and  _165
REMARK   73  A    between atoms: _165  and  _166
REMARK   74  A    between atoms: _172  and  _174
REMARK   75  A    between atoms: _174  and  _175
REMARK   76  A    between atoms: _174  and  _177
REMARK   77  A    between atoms: _177  and  _178
REMARK   78  A    between atoms: _181  and  _183
REMARK   79  A    between atoms: _183  and  _184
REMARK   80  A    between atoms: _183  and  _186
REMARK   81  A    between atoms: _189  and  _191
REMARK   82  A    between atoms: _191  and  _192
REMARK   83  A    between atoms: _191  and  _194
REMARK   84  A    between atoms: _194  and  _195
REMARK   85  A    between atoms: _199  and  _200
REMARK   86  A    between atoms: _205  and  _207
REMARK   87  A    between atoms: _207  and  _208
REMARK   88  A    between atoms: _207  and  _210
REMARK   89  A    between atoms: _210  and  _211
REMARK   90  A    between atoms: _215  and  _216
REMARK   91  A    between atoms: _221  and  _223
REMARK   92  A    between atoms: _223  and  _224
REMARK   93  A    between atoms: _223  and  _226
REMARK   94  A    between atoms: _229  and  _231
REMARK   95  A    between atoms: _231  and  _232
REMARK   96  A    between atoms: _231  and  _234
REMARK   97  A    between atoms: _234  and  _235
REMARK   98  A    between atoms: _240  and  _242
REMARK   99  A    between atoms: _242  and  _243
REMARK  100  A    between atoms: _242  and  _245
REMARK  101  A    between atoms: _245  and  _246
REMARK  102  A    between atoms: _249  and  _251
REMARK  103  A    between atoms: _251  and  _252
REMARK  104  A    between atoms: _251  and  _254
REMARK  105  A    between atoms: _254  and  _255
REMARK  106  A    between atoms: _258  and  _260
REMARK  107  A    between atoms: _260  and  _261
REMARK  108  A    between atoms: _263  and  _265
REMARK  109  A    between atoms: _265  and  _266
REMARK  110  A    between atoms: _265  and  _268
REMARK  111  A    between atoms: _268  and  _269
REMARK  112  A    between atoms: _269  and  _270
REMARK  113  A    between atoms: _270  and  _271
REMARK  114  A    between atoms: _280  and  _282
REMARK  115  A    between atoms: _282  and  _283
REMARK  116  A    between atoms: _282  and  _285
REMARK  117  A    between atoms: _285  and  _286
REMARK  118  A    between atoms: _286  and  _287
REMARK  119  A    between atoms: _287  and  _288
REMARK  120  A    between atoms: _297  and  _299
REMARK  121  A    between atoms: _299  and  _300
REMARK  122  A    between atoms: _299  and  _302
REMARK  123  A    between atoms: _302  and  _303
REMARK  124  A    between atoms: _306  and  _308
REMARK  125  A    between atoms: _308  and  _309
REMARK  126  A    between atoms: _308  and  _311
REMARK  127  A    between atoms: _311  and  _312
REMARK  128  A    between atoms: _315  and  _317
REMARK  129  A    between atoms: _317  and  _318
REMARK  130  A    between atoms: _317  and  _320
REMARK  131  A    between atoms: _320  and  _321
REMARK  132  A    between atoms: _324  and  _326
REMARK  133  A    between atoms: _326  and  _327
REMARK  134  A    between atoms: _326  and  _329
REMARK  135  A    between atoms: _329  and  _330
REMARK  136  A    between atoms: _333  and  _335
REMARK  137  A    between atoms: _335  and  _336
REMARK  138  A    between atoms: _338  and  _340
REMARK  139  A    between atoms: _340  and  _341
REMARK  140  A    between atoms: _344  and  _346
REMARK  141  A    between atoms: _346  and  _347
REMARK  142  A    between atoms: _346  and  _349
REMARK  143  A    between atoms: _349  and  _350
REMARK  144  A    between atoms: _353  and  _355
REMARK  145  A    between atoms: _355  and  _356
REMARK  146  A    between atoms: _355  and  _358
REMARK  147  A    between atoms: _358  and  _359
REMARK  148  A    between atoms: _362  and  _364
REMARK  149  A    between atoms: _364  and  _365
REMARK  150  A    between atoms: _364  and  _367
REMARK  151  A    between atoms: _367  and  _368
REMARK  152  A    between atoms: _371  and  _373
REMARK  153  A    between atoms: _373  and  _374
REMARK  154  A    between atoms: _373  and  _376
REMARK  155  A    between atoms: _379  and  _381
REMARK  156  A    between atoms: _381  and  _382
REMARK  157  A    between atoms: _381  and  _384
REMARK  158  A    between atoms: _384  and  _385
REMARK  159  A    between atoms: _388  and  _390
REMARK  160  A    between atoms: _390  and  _391
REMARK  161  A    between atoms: _390  and  _393
REMARK  162  A    between atoms: _393  and  _394
REMARK  163  A    between atoms: _394  and  _395
REMARK  164  A    between atoms: _395  and  _396
REMARK  165  A    between atoms: _396  and  _397
REMARK  166  A    between atoms: _401  and  _403
REMARK  167  A    between atoms: _403  and  _404
REMARK  168  A    between atoms: _403  and  _406
REMARK  169  A    between atoms: _406  and  _407
REMARK  170  A    between atoms: _407  and  _408
REMARK  171  A    between atoms: _410  and  _412
REMARK  172  A    between atoms: _412  and  _413
REMARK  173  A    between atoms: _412  and  _415
REMARK  174  A    between atoms: _415  and  _416
REMARK  175  A    between atoms: _419  and  _421
REMARK  176  A    between atoms: _421  and  _422
REMARK  177  A    between atoms: _424  and  _426
REMARK  178  A    between atoms: _426  and  _427
REMARK  179  A    between atoms: _429  and  _431
REMARK  180  A    between atoms: _431  and  _432
REMARK  181  A    between atoms: _431  and  _434
REMARK  182  A    between atoms: _434  and  _435
REMARK  183  A    between atoms: _438  and  _440
REMARK  184  A    between atoms: _440  and  _441
REMARK  185  A    between atoms: _443  and  _445
REMARK  186  A    between atoms: _445  and  _446
REMARK  187  A    between atoms: _448  and  _450
REMARK  188  A    between atoms: _450  and  _451
REMARK  189  A    between atoms: _450  and  _453
REMARK  190  A    between atoms: _453  and  _454
REMARK  191  A    between atoms: _460  and  _462
REMARK  192  A    between atoms: _462  and  _463
REMARK  193  A    between atoms: _462  and  _465
REMARK  194  A    between atoms: _465  and  _466
REMARK  195  A    between atoms: _469  and  _471
REMARK  196  A    between atoms: _471  and  _472
REMARK  197  A    between atoms: _471  and  _474
REMARK  198  A    between atoms: _477  and  _479
REMARK  199  A    between atoms: _479  and  _480
REMARK  200  A    between atoms: _479  and  _482
REMARK  201  A    between atoms: _482  and  _483
REMARK  202  A    between atoms: _487  and  _488
REMARK  203  A    between atoms: _493  and  _495
REMARK  204  A    between atoms: _495  and  _496
REMARK  205  A    between atoms: _495  and  _498
REMARK  206  A    between atoms: _498  and  _499
REMARK  207  A    between atoms: _503  and  _504
REMARK  208  A    between atoms: _509  and  _511
REMARK  209  A    between atoms: _511  and  _512
REMARK  210  A    between atoms: _511  and  _514
REMARK  211  A    between atoms: _517  and  _519
REMARK  212  A    between atoms: _519  and  _520
REMARK  213  A    between atoms: _519  and  _522
REMARK  214  A    between atoms: _522  and  _523
REMARK  215  A    between atoms: _528  and  _530
REMARK  216  A    between atoms: _530  and  _531
REMARK  217  A    between atoms: _530  and  _533
REMARK  218  A    between atoms: _533  and  _534
REMARK  219  A    between atoms: _537  and  _539
REMARK  220  A    between atoms: _539  and  _540
REMARK  221  A    between atoms: _539  and  _542
REMARK  222  A    between atoms: _542  and  _543
REMARK  223  A    between atoms: _546  and  _548
REMARK  224  A    between atoms: _548  and  _549
REMARK  225  A    between atoms: _551  and  _553
REMARK  226  A    between atoms: _553  and  _554
REMARK  227  A    between atoms: _553  and  _556
REMARK  228  A    between atoms: _556  and  _557
REMARK  229  A    between atoms: _557  and  _558
REMARK  230  A    between atoms: _558  and  _559
REMARK  231  A    between atoms: _568  and  _570
REMARK  232  A    between atoms: _570  and  _571
REMARK  233  A    between atoms: _570  and  _573
REMARK  234  A    between atoms: _573  and  _574
REMARK                            x       y       z     vdW  Elec       q    Type
REMARK                         _______ _______ _______ _____ _____    ______ ____
ROOT
ATOM      1  O   HOH     1      21.940 -27.296 -18.096  0.00  0.00    +0.000 OA
ENDROOT
TORSDOF 0
REMARK  Name = ../refined-set-2016/2o4s/2o4s_pocket.pdb
REMARK  234 active torsions:
REMARK  status: ('A' for Active; 'I' for Inactive)
REMARK    1  A    between atoms: _1  and  _3
REMARK    2  A    between atoms: _3  and  _4
REMARK    3  A    between atoms: _3  and  _6
REMARK    4  A    between atoms: _6  and  _7
REMARK    5  A    between atoms: _7  and  _8
REMARK    6  A    between atoms: _8  and  _9
REMARK    7  A    between atoms: _18  and  _20
REMARK    8  A    between atoms: _20  and  _21
REMARK    9  A    between atoms: _20  and  _23
REMARK   10  A    between atoms: _23  and  _24
REMARK   11  A    between atoms: _27  and  _29
REMARK   12  A    between atoms: _29  and  _30
REMARK   13  A    between atoms: _29  and  _32
REMARK   14  A    between atoms: _32  and  _33
REMARK   15  A    between atoms: _36  and  _38
REMARK   16  A    between atoms: _38  and  _39
REMARK   17  A    between atoms: _38  and  _41
REMARK   18  A    between atoms: _41  and  _42
REMARK   19  A    between atoms: _45  and  _47
REMARK   20  A    between atoms: _47  and  _48
REMARK   21  A    between atoms: _47  and  _50
REMARK   22  A    between atoms: _50  and  _51
REMARK   23  A    between atoms: _54  and  _56
REMARK   24  A    between atoms: _56  and  _57
REMARK   25  A    between atoms: _59  and  _61
REMARK   26  A    between atoms: _61  and  _62
REMARK   27  A    between atoms: _65  and  _67
REMARK   28  A    between atoms: _67  and  _68
REMARK   29  A    between atoms: _67  and  _70
REMARK   30  A    between atoms: _70  and  _71
REMARK   31  A    between atoms: _74  and  _76
REMARK   32  A    between atoms: _76  and  _77
REMARK   33  A    between atoms: _76  and  _79
REMARK   34  A    between atoms: _79  and  _80
REMARK   35  A    between atoms: _83  and  _85
REMARK   36  A    between atoms: _85  and  _86
REMARK   37  A    between atoms: _85  and  _88
REMARK   38  A    between atoms: _88  and  _89
REMARK   39  A    between atoms: _92  and  _94
REMARK   40  A    between atoms: _94  and  _95
REMARK   41  A    between atoms: _94  and  _97
REMARK   42  A    between atoms: _100  and  _102
REMARK   43  A    between atoms: _102  and  _103
REMARK   44  A    between atoms: _102  and  _105
REMARK   45  A    between atoms: _105  and  _106
REMARK   46  A    between atoms: _106  and  _107
REMARK   47  A    between atoms: _107  and  _108
REMARK   48  A    between atoms: _108  and  _109
REMARK   49  A    between atoms: _113  and  _115
REMARK   50  A    between atoms: _115  and  _116
REMARK   51  A    between atoms: _115  and  _118
REMARK   52  A    between atoms: _118  and  _119
REMARK   53  A    between atoms: _119  and  _120
REMARK   54  A    between atoms: _122  and  _124
REMARK   55  A    between atoms: _124  and  _125
REMARK   56  A    between atoms: _124  and  _127
REMARK   57  A    between atoms: _127  and  _128
REMARK   58  A    between atoms: _131  and  _133
REMARK   59  A    between atoms: _133  and  _134
REMARK   60  A    between atoms: _136  and  _138
REMARK   61  A    between atoms: _138  and  _139
REMARK   62  A    between atoms: _141  and  _143
REMARK   63  A    between atoms: _143  and  _144
REMARK   64  A    between atoms: _143  and  _146
REMARK   65  A    between atoms: _146  and  _147
REMARK   66  A    between atoms: _150  and  _152
REMARK   67  A    between atoms: _152  and  _153
REMARK   68  A    between atoms: _155  and  _157
REMARK   69  A    between atoms: _157  and  _158
REMARK   70  A    between atoms: _160  and  _162
REMARK   71  A    between atoms: _162  and  _163
REMARK   72  A    between atoms: _162  and  _165
REMARK   73  A    between atoms: _165  and  _166
REMARK   74  A    between atoms: _172  and  _174
REMARK   75  A    between atoms: _174  and  _175
REMARK   76  A    between atoms: _174  and  _177
REMARK   77  A    between atoms: _177  and  _178
REMARK   78  A    between atoms: _181  and  _183
REMARK   79  A    between atoms: _183  and  _184
REMARK   80  A    between atoms: _183  and  _186
REMARK   81  A    between atoms: _189  and  _191
REMARK   82  A    between atoms: _191  and  _192
REMARK   83  A    between atoms: _191  and  _194
REMARK   84  A    between atoms: _194  and  _195
REMARK   85  A    between atoms: _199  and  _200
REMARK   86  A    between atoms: _205  and  _207
REMARK   87  A    between atoms: _207  and  _208
REMARK   88  A    between atoms: _207  and  _210
REMARK   89  A    between atoms: _210  and  _211
REMARK   90  A    between atoms: _215  and  _216
REMARK   91  A    between atoms: _221  and  _223
REMARK   92  A    between atoms: _223  and  _224
REMARK   93  A    between atoms: _223  and  _226
REMARK   94  A    between atoms: _229  and  _231
REMARK   95  A    between atoms: _231  and  _232
REMARK   96  A    between atoms: _231  and  _234
REMARK   97  A    between atoms: _234  and  _235
REMARK   98  A    between atoms: _240  and  _242
REMARK   99  A    between atoms: _242  and  _243
REMARK  100  A    between atoms: _242  and  _245
REMARK  101  A    between atoms: _245  and  _246
REMARK  102  A    between atoms: _249  and  _251
REMARK  103  A    between atoms: _251  and  _252
REMARK  104  A    between atoms: _251  and  _254
REMARK  105  A    between atoms: _254  and  _255
REMARK  106  A    between atoms: _258  and  _260
REMARK  107  A    between atoms: _260  and  _261
REMARK  108  A    between atoms: _263  and  _265
REMARK  109  A    between atoms: _265  and  _266
REMARK  110  A    between atoms: _265  and  _268
REMARK  111  A    between atoms: _268  and  _269
REMARK  112  A    between atoms: _269  and  _270
REMARK  113  A    between atoms: _270  and  _271
REMARK  114  A    between atoms: _280  and  _282
REMARK  115  A    between atoms: _282  and  _283
REMARK  116  A    between atoms: _282  and  _285
REMARK  117  A    between atoms: _285  and  _286
REMARK  118  A    between atoms: _286  and  _287
REMARK  119  A    between atoms: _287  and  _288
REMARK  120  A    between atoms: _297  and  _299
REMARK  121  A    between atoms: _299  and  _300
REMARK  122  A    between atoms: _299  and  _302
REMARK  123  A    between atoms: _302  and  _303
REMARK  124  A    between atoms: _306  and  _308
REMARK  125  A    between atoms: _308  and  _309
REMARK  126  A    between atoms: _308  and  _311
REMARK  127  A    between atoms: _311  and  _312
REMARK  128  A    between atoms: _315  and  _317
REMARK  129  A    between atoms: _317  and  _318
REMARK  130  A    between atoms: _317  and  _320
REMARK  131  A    between atoms: _320  and  _321
REMARK  132  A    between atoms: _324  and  _326
REMARK  133  A    between atoms: _326  and  _327
REMARK  134  A    between atoms: _326  and  _329
REMARK  135  A    between atoms: _329  and  _330
REMARK  136  A    between atoms: _333  and  _335
REMARK  137  A    between atoms: _335  and  _336
REMARK  138  A    between atoms: _338  and  _340
REMARK  139  A    between atoms: _340  and  _341
REMARK  140  A    between atoms: _344  and  _346
REMARK  141  A    between atoms: _346  and  _347
REMARK  142  A    between atoms: _346  and  _349
REMARK  143  A    between atoms: _349  and  _350
REMARK  144  A    between atoms: _353  and  _355
REMARK  145  A    between atoms: _355  and  _356
REMARK  146  A    between atoms: _355  and  _358
REMARK  147  A    between atoms: _358  and  _359
REMARK  148  A    between atoms: _362  and  _364
REMARK  149  A    between atoms: _364  and  _365
REMARK  150  A    between atoms: _364  and  _367
REMARK  151  A    between atoms: _367  and  _368
REMARK  152  A    between atoms: _371  and  _373
REMARK  153  A    between atoms: _373  and  _374
REMARK  154  A    between atoms: _373  and  _376
REMARK  155  A    between atoms: _379  and  _381
REMARK  156  A    between atoms: _381  and  _382
REMARK  157  A    between atoms: _381  and  _384
REMARK  158  A    between atoms: _384  and  _385
REMARK  159  A    between atoms: _388  and  _390
REMARK  160  A    between atoms: _390  and  _391
REMARK  161  A    between atoms: _390  and  _393
REMARK  162  A    between atoms: _393  and  _394
REMARK  163  A    between atoms: _394  and  _395
REMARK  164  A    between atoms: _395  and  _396
REMARK  165  A    between atoms: _396  and  _397
REMARK  166  A    between atoms: _401  and  _403
REMARK  167  A    between atoms: _403  and  _404
REMARK  168  A    between atoms: _403  and  _406
REMARK  169  A    between atoms: _406  and  _407
REMARK  170  A    between atoms: _407  and  _408
REMARK  171  A    between atoms: _410  and  _412
REMARK  172  A    between atoms: _412  and  _413
REMARK  173  A    between atoms: _412  and  _415
REMARK  174  A    between atoms: _415  and  _416
REMARK  175  A    between atoms: _419  and  _421
REMARK  176  A    between atoms: _421  and  _422
REMARK  177  A    between atoms: _424  and  _426
REMARK  178  A    between atoms: _426  and  _427
REMARK  179  A    between atoms: _429  and  _431
REMARK  180  A    between atoms: _431  and  _432
REMARK  181  A    between atoms: _431  and  _434
REMARK  182  A    between atoms: _434  and  _435
REMARK  183  A    between atoms: _438  and  _440
REMARK  184  A    between atoms: _440  and  _441
REMARK  185  A    between atoms: _443  and  _445
REMARK  186  A    between atoms: _445  and  _446
REMARK  187  A    between atoms: _448  and  _450
REMARK  188  A    between atoms: _450  and  _451
REMARK  189  A    between atoms: _450  and  _453
REMARK  190  A    between atoms: _453  and  _454
REMARK  191  A    between atoms: _460  and  _462
REMARK  192  A    between atoms: _462  and  _463
REMARK  193  A    between atoms: _462  and  _465
REMARK  194  A    between atoms: _465  and  _466
REMARK  195  A    between atoms: _469  and  _471
REMARK  196  A    between atoms: _471  and  _472
REMARK  197  A    between atoms: _471  and  _474
REMARK  198  A    between atoms: _477  and  _479
REMARK  199  A    between atoms: _479  and  _480
REMARK  200  A    between atoms: _479  and  _482
REMARK  201  A    between atoms: _482  and  _483
REMARK  202  A    between atoms: _487  and  _488
REMARK  203  A    between atoms: _493  and  _495
REMARK  204  A    between atoms: _495  and  _496
REMARK  205  A    between atoms: _495  and  _498
REMARK  206  A    between atoms: _498  and  _499
REMARK  207  A    between atoms: _503  and  _504
REMARK  208  A    between atoms: _509  and  _511
REMARK  209  A    between atoms: _511  and  _512
REMARK  210  A    between atoms: _511  and  _514
REMARK  211  A    between atoms: _517  and  _519
REMARK  212  A    between atoms: _519  and  _520
REMARK  213  A    between atoms: _519  and  _522
REMARK  214  A    between atoms: _522  and  _523
REMARK  215  A    between atoms: _528  and  _530
REMARK  216  A    between atoms: _530  and  _531
REMARK  217  A    between atoms: _530  and  _533
REMARK  218  A    between atoms: _533  and  _534
REMARK  219  A    between atoms: _537  and  _539
REMARK  220  A    between atoms: _539  and  _540
REMARK  221  A    between atoms: _539  and  _542
REMARK  222  A    between atoms: _542  and  _543
REMARK  223  A    between atoms: _546  and  _548
REMARK  224  A    between atoms: _548  and  _549
REMARK  225  A    between atoms: _551  and  _553
REMARK  226  A    between atoms: _553  and  _554
REMARK  227  A    between atoms: _553  and  _556
REMARK  228  A    between atoms: _556  and  _557
REMARK  229  A    between atoms: _557  and  _558
REMARK  230  A    between atoms: _558  and  _559
REMARK  231  A    between atoms: _568  and  _570
REMARK  232  A    between atoms: _570  and  _571
REMARK  233  A    between atoms: _570  and  _573
REMARK  234  A    between atoms: _573  and  _574
REMARK                            x       y       z     vdW  Elec       q    Type
REMARK                         _______ _______ _______ _____ _____    ______ ____
ROOT
ATOM      1  O   HOH     1       3.017 -20.139 -24.078  0.00  0.00    +0.000 OA
ENDROOT
TORSDOF 0
REMARK  Name = ../refined-set-2016/2o4s/2o4s_pocket.pdb
REMARK  234 active torsions:
REMARK  status: ('A' for Active; 'I' for Inactive)
REMARK    1  A    between atoms: _1  and  _3
REMARK    2  A    between atoms: _3  and  _4
REMARK    3  A    between atoms: _3  and  _6
REMARK    4  A    between atoms: _6  and  _7
REMARK    5  A    between atoms: _7  and  _8
REMARK    6  A    between atoms: _8  and  _9
REMARK    7  A    between atoms: _18  and  _20
REMARK    8  A    between atoms: _20  and  _21
REMARK    9  A    between atoms: _20  and  _23
REMARK   10  A    between atoms: _23  and  _24
REMARK   11  A    between atoms: _27  and  _29
REMARK   12  A    between atoms: _29  and  _30
REMARK   13  A    between atoms: _29  and  _32
REMARK   14  A    between atoms: _32  and  _33
REMARK   15  A    between atoms: _36  and  _38
REMARK   16  A    between atoms: _38  and  _39
REMARK   17  A    between atoms: _38  and  _41
REMARK   18  A    between atoms: _41  and  _42
REMARK   19  A    between atoms: _45  and  _47
REMARK   20  A    between atoms: _47  and  _48
REMARK   21  A    between atoms: _47  and  _50
REMARK   22  A    between atoms: _50  and  _51
REMARK   23  A    between atoms: _54  and  _56
REMARK   24  A    between atoms: _56  and  _57
REMARK   25  A    between atoms: _59  and  _61
REMARK   26  A    between atoms: _61  and  _62
REMARK   27  A    between atoms: _65  and  _67
REMARK   28  A    between atoms: _67  and  _68
REMARK   29  A    between atoms: _67  and  _70
REMARK   30  A    between atoms: _70  and  _71
REMARK   31  A    between atoms: _74  and  _76
REMARK   32  A    between atoms: _76  and  _77
REMARK   33  A    between atoms: _76  and  _79
REMARK   34  A    between atoms: _79  and  _80
REMARK   35  A    between atoms: _83  and  _85
REMARK   36  A    between atoms: _85  and  _86
REMARK   37  A    between atoms: _85  and  _88
REMARK   38  A    between atoms: _88  and  _89
REMARK   39  A    between atoms: _92  and  _94
REMARK   40  A    between atoms: _94  and  _95
REMARK   41  A    between atoms: _94  and  _97
REMARK   42  A    between atoms: _100  and  _102
REMARK   43  A    between atoms: _102  and  _103
REMARK   44  A    between atoms: _102  and  _105
REMARK   45  A    between atoms: _105  and  _106
REMARK   46  A    between atoms: _106  and  _107
REMARK   47  A    between atoms: _107  and  _108
REMARK   48  A    between atoms: _108  and  _109
REMARK   49  A    between atoms: _113  and  _115
REMARK   50  A    between atoms: _115  and  _116
REMARK   51  A    between atoms: _115  and  _118
REMARK   52  A    between atoms: _118  and  _119
REMARK   53  A    between atoms: _119  and  _120
REMARK   54  A    between atoms: _122  and  _124
REMARK   55  A    between atoms: _124  and  _125
REMARK   56  A    between atoms: _124  and  _127
REMARK   57  A    between atoms: _127  and  _128
REMARK   58  A    between atoms: _131  and  _133
REMARK   59  A    between atoms: _133  and  _134
REMARK   60  A    between atoms: _136  and  _138
REMARK   61  A    between atoms: _138  and  _139
REMARK   62  A    between atoms: _141  and  _143
REMARK   63  A    between atoms: _143  and  _144
REMARK   64  A    between atoms: _143  and  _146
REMARK   65  A    between atoms: _146  and  _147
REMARK   66  A    between atoms: _150  and  _152
REMARK   67  A    between atoms: _152  and  _153
REMARK   68  A    between atoms: _155  and  _157
REMARK   69  A    between atoms: _157  and  _158
REMARK   70  A    between atoms: _160  and  _162
REMARK   71  A    between atoms: _162  and  _163
REMARK   72  A    between atoms: _162  and  _165
REMARK   73  A    between atoms: _165  and  _166
REMARK   74  A    between atoms: _172  and  _174
REMARK   75  A    between atoms: _174  and  _175
REMARK   76  A    between atoms: _174  and  _177
REMARK   77  A    between atoms: _177  and  _178
REMARK   78  A    between atoms: _181  and  _183
REMARK   79  A    between atoms: _183  and  _184
REMARK   80  A    between atoms: _183  and  _186
REMARK   81  A    between atoms: _189  and  _191
REMARK   82  A    between atoms: _191  and  _192
REMARK   83  A    between atoms: _191  and  _194
REMARK   84  A    between atoms: _194  and  _195
REMARK   85  A    between atoms: _199  and  _200
REMARK   86  A    between atoms: _205  and  _207
REMARK   87  A    between atoms: _207  and  _208
REMARK   88  A    between atoms: _207  and  _210
REMARK   89  A    between atoms: _210  and  _211
REMARK   90  A    between atoms: _215  and  _216
REMARK   91  A    between atoms: _221  and  _223
REMARK   92  A    between atoms: _223  and  _224
REMARK   93  A    between atoms: _223  and  _226
REMARK   94  A    between atoms: _229  and  _231
REMARK   95  A    between atoms: _231  and  _232
REMARK   96  A    between atoms: _231  and  _234
REMARK   97  A    between atoms: _234  and  _235
REMARK   98  A    between atoms: _240  and  _242
REMARK   99  A    between atoms: _242  and  _243
REMARK  100  A    between atoms: _242  and  _245
REMARK  101  A    between atoms: _245  and  _246
REMARK  102  A    between atoms: _249  and  _251
REMARK  103  A    between atoms: _251  and  _252
REMARK  104  A    between atoms: _251  and  _254
REMARK  105  A    between atoms: _254  and  _255
REMARK  106  A    between atoms: _258  and  _260
REMARK  107  A    between atoms: _260  and  _261
REMARK  108  A    between atoms: _263  and  _265
REMARK  109  A    between atoms: _265  and  _266
REMARK  110  A    between atoms: _265  and  _268
REMARK  111  A    between atoms: _268  and  _269
REMARK  112  A    between atoms: _269  and  _270
REMARK  113  A    between atoms: _270  and  _271
REMARK  114  A    between atoms: _280  and  _282
REMARK  115  A    between atoms: _282  and  _283
REMARK  116  A    between atoms: _282  and  _285
REMARK  117  A    between atoms: _285  and  _286
REMARK  118  A    between atoms: _286  and  _287
REMARK  119  A    between atoms: _287  and  _288
REMARK  120  A    between atoms: _297  and  _299
REMARK  121  A    between atoms: _299  and  _300
REMARK  122  A    between atoms: _299  and  _302
REMARK  123  A    between atoms: _302  and  _303
REMARK  124  A    between atoms: _306  and  _308
REMARK  125  A    between atoms: _308  and  _309
REMARK  126  A    between atoms: _308  and  _311
REMARK  127  A    between atoms: _311  and  _312
REMARK  128  A    between atoms: _315  and  _317
REMARK  129  A    between atoms: _317  and  _318
REMARK  130  A    between atoms: _317  and  _320
REMARK  131  A    between atoms: _320  and  _321
REMARK  132  A    between atoms: _324  and  _326
REMARK  133  A    between atoms: _326  and  _327
REMARK  134  A    between atoms: _326  and  _329
REMARK  135  A    between atoms: _329  and  _330
REMARK  136  A    between atoms: _333  and  _335
REMARK  137  A    between atoms: _335  and  _336
REMARK  138  A    between atoms: _338  and  _340
REMARK  139  A    between atoms: _340  and  _341
REMARK  140  A    between atoms: _344  and  _346
REMARK  141  A    between atoms: _346  and  _347
REMARK  142  A    between atoms: _346  and  _349
REMARK  143  A    between atoms: _349  and  _350
REMARK  144  A    between atoms: _353  and  _355
REMARK  145  A    between atoms: _355  and  _356
REMARK  146  A    between atoms: _355  and  _358
REMARK  147  A    between atoms: _358  and  _359
REMARK  148  A    between atoms: _362  and  _364
REMARK  149  A    between atoms: _364  and  _365
REMARK  150  A    between atoms: _364  and  _367
REMARK  151  A    between atoms: _367  and  _368
REMARK  152  A    between atoms: _371  and  _373
REMARK  153  A    between atoms: _373  and  _374
REMARK  154  A    between atoms: _373  and  _376
REMARK  155  A    between atoms: _379  and  _381
REMARK  156  A    between atoms: _381  and  _382
REMARK  157  A    between atoms: _381  and  _384
REMARK  158  A    between atoms: _384  and  _385
REMARK  159  A    between atoms: _388  and  _390
REMARK  160  A    between atoms: _390  and  _391
REMARK  161  A    between atoms: _390  and  _393
REMARK  162  A    between atoms: _393  and  _394
REMARK  163  A    between atoms: _394  and  _395
REMARK  164  A    between atoms: _395  and  _396
REMARK  165  A    between atoms: _396  and  _397
REMARK  166  A    between atoms: _401  and  _403
REMARK  167  A    between atoms: _403  and  _404
REMARK  168  A    between atoms: _403  and  _406
REMARK  169  A    between atoms: _406  and  _407
REMARK  170  A    between atoms: _407  and  _408
REMARK  171  A    between atoms: _410  and  _412
REMARK  172  A    between atoms: _412  and  _413
REMARK  173  A    between atoms: _412  and  _415
REMARK  174  A    between atoms: _415  and  _416
REMARK  175  A    between atoms: _419  and  _421
REMARK  176  A    between atoms: _421  and  _422
REMARK  177  A    between atoms: _424  and  _426
REMARK  178  A    between atoms: _426  and  _427
REMARK  179  A    between atoms: _429  and  _431
REMARK  180  A    between atoms: _431  and  _432
REMARK  181  A    between atoms: _431  and  _434
REMARK  182  A    between atoms: _434  and  _435
REMARK  183  A    between atoms: _438  and  _440
REMARK  184  A    between atoms: _440  and  _441
REMARK  185  A    between atoms: _443  and  _445
REMARK  186  A    between atoms: _445  and  _446
REMARK  187  A    between atoms: _448  and  _450
REMARK  188  A    between atoms: _450  and  _451
REMARK  189  A    between atoms: _450  and  _453
REMARK  190  A    between atoms: _453  and  _454
REMARK  191  A    between atoms: _460  and  _462
REMARK  192  A    between atoms: _462  and  _463
REMARK  193  A    between atoms: _462  and  _465
REMARK  194  A    between atoms: _465  and  _466
REMARK  195  A    between atoms: _469  and  _471
REMARK  196  A    between atoms: _471  and  _472
REMARK  197  A    between atoms: _471  and  _474
REMARK  198  A    between atoms: _477  and  _479
REMARK  199  A    between atoms: _479  and  _480
REMARK  200  A    between atoms: _479  and  _482
REMARK  201  A    between atoms: _482  and  _483
REMARK  202  A    between atoms: _487  and  _488
REMARK  203  A    between atoms: _493  and  _495
REMARK  204  A    between atoms: _495  and  _496
REMARK  205  A    between atoms: _495  and  _498
REMARK  206  A    between atoms: _498  and  _499
REMARK  207  A    between atoms: _503  and  _504
REMARK  208  A    between atoms: _509  and  _511
REMARK  209  A    between atoms: _511  and  _512
REMARK  210  A    between atoms: _511  and  _514
REMARK  211  A    between atoms: _517  and  _519
REMARK  212  A    between atoms: _519  and  _520
REMARK  213  A    between atoms: _519  and  _522
REMARK  214  A    between atoms: _522  and  _523
REMARK  215  A    between atoms: _528  and  _530
REMARK  216  A    between atoms: _530  and  _531
REMARK  217  A    between atoms: _530  and  _533
REMARK  218  A    between atoms: _533  and  _534
REMARK  219  A    between atoms: _537  and  _539
REMARK  220  A    between atoms: _539  and  _540
REMARK  221  A    between atoms: _539  and  _542
REMARK  222  A    between atoms: _542  and  _543
REMARK  223  A    between atoms: _546  and  _548
REMARK  224  A    between atoms: _548  and  _549
REMARK  225  A    between atoms: _551  and  _553
REMARK  226  A    between atoms: _553  and  _554
REMARK  227  A    between atoms: _553  and  _556
REMARK  228  A    between atoms: _556  and  _557
REMARK  229  A    between atoms: _557  and  _558
REMARK  230  A    between atoms: _558  and  _559
REMARK  231  A    between atoms: _568  and  _570
REMARK  232  A    between atoms: _570  and  _571
REMARK  233  A    between atoms: _570  and  _573
REMARK  234  A    between atoms: _573  and  _574
REMARK                            x       y       z     vdW  Elec       q    Type
REMARK                         _______ _______ _______ _____ _____    ______ ____
ROOT
ATOM      1  O   HOH     1       3.694 -17.542 -23.243  0.00  0.00    +0.000 OA
ENDROOT
TORSDOF 0
REMARK  Name = ../refined-set-2016/2o4s/2o4s_pocket.pdb
REMARK  234 active torsions:
REMARK  status: ('A' for Active; 'I' for Inactive)
REMARK    1  A    between atoms: _1  and  _3
REMARK    2  A    between atoms: _3  and  _4
REMARK    3  A    between atoms: _3  and  _6
REMARK    4  A    between atoms: _6  and  _7
REMARK    5  A    between atoms: _7  and  _8
REMARK    6  A    between atoms: _8  and  _9
REMARK    7  A    between atoms: _18  and  _20
REMARK    8  A    between atoms: _20  and  _21
REMARK    9  A    between atoms: _20  and  _23
REMARK   10  A    between atoms: _23  and  _24
REMARK   11  A    between atoms: _27  and  _29
REMARK   12  A    between atoms: _29  and  _30
REMARK   13  A    between atoms: _29  and  _32
REMARK   14  A    between atoms: _32  and  _33
REMARK   15  A    between atoms: _36  and  _38
REMARK   16  A    between atoms: _38  and  _39
REMARK   17  A    between atoms: _38  and  _41
REMARK   18  A    between atoms: _41  and  _42
REMARK   19  A    between atoms: _45  and  _47
REMARK   20  A    between atoms: _47  and  _48
REMARK   21  A    between atoms: _47  and  _50
REMARK   22  A    between atoms: _50  and  _51
REMARK   23  A    between atoms: _54  and  _56
REMARK   24  A    between atoms: _56  and  _57
REMARK   25  A    between atoms: _59  and  _61
REMARK   26  A    between atoms: _61  and  _62
REMARK   27  A    between atoms: _65  and  _67
REMARK   28  A    between atoms: _67  and  _68
REMARK   29  A    between atoms: _67  and  _70
REMARK   30  A    between atoms: _70  and  _71
REMARK   31  A    between atoms: _74  and  _76
REMARK   32  A    between atoms: _76  and  _77
REMARK   33  A    between atoms: _76  and  _79
REMARK   34  A    between atoms: _79  and  _80
REMARK   35  A    between atoms: _83  and  _85
REMARK   36  A    between atoms: _85  and  _86
REMARK   37  A    between atoms: _85  and  _88
REMARK   38  A    between atoms: _88  and  _89
REMARK   39  A    between atoms: _92  and  _94
REMARK   40  A    between atoms: _94  and  _95
REMARK   41  A    between atoms: _94  and  _97
REMARK   42  A    between atoms: _100  and  _102
REMARK   43  A    between atoms: _102  and  _103
REMARK   44  A    between atoms: _102  and  _105
REMARK   45  A    between atoms: _105  and  _106
REMARK   46  A    between atoms: _106  and  _107
REMARK   47  A    between atoms: _107  and  _108
REMARK   48  A    between atoms: _108  and  _109
REMARK   49  A    between atoms: _113  and  _115
REMARK   50  A    between atoms: _115  and  _116
REMARK   51  A    between atoms: _115  and  _118
REMARK   52  A    between atoms: _118  and  _119
REMARK   53  A    between atoms: _119  and  _120
REMARK   54  A    between atoms: _122  and  _124
REMARK   55  A    between atoms: _124  and  _125
REMARK   56  A    between atoms: _124  and  _127
REMARK   57  A    between atoms: _127  and  _128
REMARK   58  A    between atoms: _131  and  _133
REMARK   59  A    between atoms: _133  and  _134
REMARK   60  A    between atoms: _136  and  _138
REMARK   61  A    between atoms: _138  and  _139
REMARK   62  A    between atoms: _141  and  _143
REMARK   63  A    between atoms: _143  and  _144
REMARK   64  A    between atoms: _143  and  _146
REMARK   65  A    between atoms: _146  and  _147
REMARK   66  A    between atoms: _150  and  _152
REMARK   67  A    between atoms: _152  and  _153
REMARK   68  A    between atoms: _155  and  _157
REMARK   69  A    between atoms: _157  and  _158
REMARK   70  A    between atoms: _160  and  _162
REMARK   71  A    between atoms: _162  and  _163
REMARK   72  A    between atoms: _162  and  _165
REMARK   73  A    between atoms: _165  and  _166
REMARK   74  A    between atoms: _172  and  _174
REMARK   75  A    between atoms: _174  and  _175
REMARK   76  A    between atoms: _174  and  _177
REMARK   77  A    between atoms: _177  and  _178
REMARK   78  A    between atoms: _181  and  _183
REMARK   79  A    between atoms: _183  and  _184
REMARK   80  A    between atoms: _183  and  _186
REMARK   81  A    between atoms: _189  and  _191
REMARK   82  A    between atoms: _191  and  _192
REMARK   83  A    between atoms: _191  and  _194
REMARK   84  A    between atoms: _194  and  _195
REMARK   85  A    between atoms: _199  and  _200
REMARK   86  A    between atoms: _205  and  _207
REMARK   87  A    between atoms: _207  and  _208
REMARK   88  A    between atoms: _207  and  _210
REMARK   89  A    between atoms: _210  and  _211
REMARK   90  A    between atoms: _215  and  _216
REMARK   91  A    between atoms: _221  and  _223
REMARK   92  A    between atoms: _223  and  _224
REMARK   93  A    between atoms: _223  and  _226
REMARK   94  A    between atoms: _229  and  _231
REMARK   95  A    between atoms: _231  and  _232
REMARK   96  A    between atoms: _231  and  _234
REMARK   97  A    between atoms: _234  and  _235
REMARK   98  A    between atoms: _240  and  _242
REMARK   99  A    between atoms: _242  and  _243
REMARK  100  A    between atoms: _242  and  _245
REMARK  101  A    between atoms: _245  and  _246
REMARK  102  A    between atoms: _249  and  _251
REMARK  103  A    between atoms: _251  and  _252
REMARK  104  A    between atoms: _251  and  _254
REMARK  105  A    between atoms: _254  and  _255
REMARK  106  A    between atoms: _258  and  _260
REMARK  107  A    between atoms: _260  and  _261
REMARK  108  A    between atoms: _263  and  _265
REMARK  109  A    between atoms: _265  and  _266
REMARK  110  A    between atoms: _265  and  _268
REMARK  111  A    between atoms: _268  and  _269
REMARK  112  A    between atoms: _269  and  _270
REMARK  113  A    between atoms: _270  and  _271
REMARK  114  A    between atoms: _280  and  _282
REMARK  115  A    between atoms: _282  and  _283
REMARK  116  A    between atoms: _282  and  _285
REMARK  117  A    between atoms: _285  and  _286
REMARK  118  A    between atoms: _286  and  _287
REMARK  119  A    between atoms: _287  and  _288
REMARK  120  A    between atoms: _297  and  _299
REMARK  121  A    between atoms: _299  and  _300
REMARK  122  A    between atoms: _299  and  _302
REMARK  123  A    between atoms: _302  and  _303
REMARK  124  A    between atoms: _306  and  _308
REMARK  125  A    between atoms: _308  and  _309
REMARK  126  A    between atoms: _308  and  _311
REMARK  127  A    between atoms: _311  and  _312
REMARK  128  A    between atoms: _315  and  _317
REMARK  129  A    between atoms: _317  and  _318
REMARK  130  A    between atoms: _317  and  _320
REMARK  131  A    between atoms: _320  and  _321
REMARK  132  A    between atoms: _324  and  _326
REMARK  133  A    between atoms: _326  and  _327
REMARK  134  A    between atoms: _326  and  _329
REMARK  135  A    between atoms: _329  and  _330
REMARK  136  A    between atoms: _333  and  _335
REMARK  137  A    between atoms: _335  and  _336
REMARK  138  A    between atoms: _338  and  _340
REMARK  139  A    between atoms: _340  and  _341
REMARK  140  A    between atoms: _344  and  _346
REMARK  141  A    between atoms: _346  and  _347
REMARK  142  A    between atoms: _346  and  _349
REMARK  143  A    between atoms: _349  and  _350
REMARK  144  A    between atoms: _353  and  _355
REMARK  145  A    between atoms: _355  and  _356
REMARK  146  A    between atoms: _355  and  _358
REMARK  147  A    between atoms: _358  and  _359
REMARK  148  A    between atoms: _362  and  _364
REMARK  149  A    between atoms: _364  and  _365
REMARK  150  A    between atoms: _364  and  _367
REMARK  151  A    between atoms: _367  and  _368
REMARK  152  A    between atoms: _371  and  _373
REMARK  153  A    between atoms: _373  and  _374
REMARK  154  A    between atoms: _373  and  _376
REMARK  155  A    between atoms: _379  and  _381
REMARK  156  A    between atoms: _381  and  _382
REMARK  157  A    between atoms: _381  and  _384
REMARK  158  A    between atoms: _384  and  _385
REMARK  159  A    between atoms: _388  and  _390
REMARK  160  A    between atoms: _390  and  _391
REMARK  161  A    between atoms: _390  and  _393
REMARK  162  A    between atoms: _393  and  _394
REMARK  163  A    between atoms: _394  and  _395
REMARK  164  A    between atoms: _395  and  _396
REMARK  165  A    between atoms: _396  and  _397
REMARK  166  A    between atoms: _401  and  _403
REMARK  167  A    between atoms: _403  and  _404
REMARK  168  A    between atoms: _403  and  _406
REMARK  169  A    between atoms: _406  and  _407
REMARK  170  A    between atoms: _407  and  _408
REMARK  171  A    between atoms: _410  and  _412
REMARK  172  A    between atoms: _412  and  _413
REMARK  173  A    between atoms: _412  and  _415
REMARK  174  A    between atoms: _415  and  _416
REMARK  175  A    between atoms: _419  and  _421
REMARK  176  A    between atoms: _421  and  _422
REMARK  177  A    between atoms: _424  and  _426
REMARK  178  A    between atoms: _426  and  _427
REMARK  179  A    between atoms: _429  and  _431
REMARK  180  A    between atoms: _431  and  _432
REMARK  181  A    between atoms: _431  and  _434
REMARK  182  A    between atoms: _434  and  _435
REMARK  183  A    between atoms: _438  and  _440
REMARK  184  A    between atoms: _440  and  _441
REMARK  185  A    between atoms: _443  and  _445
REMARK  186  A    between atoms: _445  and  _446
REMARK  187  A    between atoms: _448  and  _450
REMARK  188  A    between atoms: _450  and  _451
REMARK  189  A    between atoms: _450  and  _453
REMARK  190  A    between atoms: _453  and  _454
REMARK  191  A    between atoms: _460  and  _462
REMARK  192  A    between atoms: _462  and  _463
REMARK  193  A    between atoms: _462  and  _465
REMARK  194  A    between atoms: _465  and  _466
REMARK  195  A    between atoms: _469  and  _471
REMARK  196  A    between atoms: _471  and  _472
REMARK  197  A    between atoms: _471  and  _474
REMARK  198  A    between atoms: _477  and  _479
REMARK  199  A    between atoms: _479  and  _480
REMARK  200  A    between atoms: _479  and  _482
REMARK  201  A    between atoms: _482  and  _483
REMARK  202  A    between atoms: _487  and  _488
REMARK  203  A    between atoms: _493  and  _495
REMARK  204  A    between atoms: _495  and  _496
REMARK  205  A    between atoms: _495  and  _498
REMARK  206  A    between atoms: _498  and  _499
REMARK  207  A    between atoms: _503  and  _504
REMARK  208  A    between atoms: _509  and  _511
REMARK  209  A    between atoms: _511  and  _512
REMARK  210  A    between atoms: _511  and  _514
REMARK  211  A    between atoms: _517  and  _519
REMARK  212  A    between atoms: _519  and  _520
REMARK  213  A    between atoms: _519  and  _522
REMARK  214  A    between atoms: _522  and  _523
REMARK  215  A    between atoms: _528  and  _530
REMARK  216  A    between atoms: _530  and  _531
REMARK  217  A    between atoms: _530  and  _533
REMARK  218  A    between atoms: _533  and  _534
REMARK  219  A    between atoms: _537  and  _539
REMARK  220  A    between atoms: _539  and  _540
REMARK  221  A    between atoms: _539  and  _542
REMARK  222  A    between atoms: _542  and  _543
REMARK  223  A    between atoms: _546  and  _548
REMARK  224  A    between atoms: _548  and  _549
REMARK  225  A    between atoms: _551  and  _553
REMARK  226  A    between atoms: _553  and  _554
REMARK  227  A    between atoms: _553  and  _556
REMARK  228  A    between atoms: _556  and  _557
REMARK  229  A    between atoms: _557  and  _558
REMARK  230  A    between atoms: _558  and  _559
REMARK  231  A    between atoms: _568  and  _570
REMARK  232  A    between atoms: _570  and  _571
REMARK  233  A    between atoms: _570  and  _573
REMARK  234  A    between atoms: _573  and  _574
REMARK                            x       y       z     vdW  Elec       q    Type
REMARK                         _______ _______ _______ _____ _____    ______ ____
ROOT
ATOM      1  O   HOH     1       6.077 -15.174 -26.398  0.00  0.00    +0.000 OA
ENDROOT
TORSDOF 0
REMARK  Name = ../refined-set-2016/2o4s/2o4s_pocket.pdb
REMARK  234 active torsions:
REMARK  status: ('A' for Active; 'I' for Inactive)
REMARK    1  A    between atoms: _1  and  _3
REMARK    2  A    between atoms: _3  and  _4
REMARK    3  A    between atoms: _3  and  _6
REMARK    4  A    between atoms: _6  and  _7
REMARK    5  A    between atoms: _7  and  _8
REMARK    6  A    between atoms: _8  and  _9
REMARK    7  A    between atoms: _18  and  _20
REMARK    8  A    between atoms: _20  and  _21
REMARK    9  A    between atoms: _20  and  _23
REMARK   10  A    between atoms: _23  and  _24
REMARK   11  A    between atoms: _27  and  _29
REMARK   12  A    between atoms: _29  and  _30
REMARK   13  A    between atoms: _29  and  _32
REMARK   14  A    between atoms: _32  and  _33
REMARK   15  A    between atoms: _36  and  _38
REMARK   16  A    between atoms: _38  and  _39
REMARK   17  A    between atoms: _38  and  _41
REMARK   18  A    between atoms: _41  and  _42
REMARK   19  A    between atoms: _45  and  _47
REMARK   20  A    between atoms: _47  and  _48
REMARK   21  A    between atoms: _47  and  _50
REMARK   22  A    between atoms: _50  and  _51
REMARK   23  A    between atoms: _54  and  _56
REMARK   24  A    between atoms: _56  and  _57
REMARK   25  A    between atoms: _59  and  _61
REMARK   26  A    between atoms: _61  and  _62
REMARK   27  A    between atoms: _65  and  _67
REMARK   28  A    between atoms: _67  and  _68
REMARK   29  A    between atoms: _67  and  _70
REMARK   30  A    between atoms: _70  and  _71
REMARK   31  A    between atoms: _74  and  _76
REMARK   32  A    between atoms: _76  and  _77
REMARK   33  A    between atoms: _76  and  _79
REMARK   34  A    between atoms: _79  and  _80
REMARK   35  A    between atoms: _83  and  _85
REMARK   36  A    between atoms: _85  and  _86
REMARK   37  A    between atoms: _85  and  _88
REMARK   38  A    between atoms: _88  and  _89
REMARK   39  A    between atoms: _92  and  _94
REMARK   40  A    between atoms: _94  and  _95
REMARK   41  A    between atoms: _94  and  _97
REMARK   42  A    between atoms: _100  and  _102
REMARK   43  A    between atoms: _102  and  _103
REMARK   44  A    between atoms: _102  and  _105
REMARK   45  A    between atoms: _105  and  _106
REMARK   46  A    between atoms: _106  and  _107
REMARK   47  A    between atoms: _107  and  _108
REMARK   48  A    between atoms: _108  and  _109
REMARK   49  A    between atoms: _113  and  _115
REMARK   50  A    between atoms: _115  and  _116
REMARK   51  A    between atoms: _115  and  _118
REMARK   52  A    between atoms: _118  and  _119
REMARK   53  A    between atoms: _119  and  _120
REMARK   54  A    between atoms: _122  and  _124
REMARK   55  A    between atoms: _124  and  _125
REMARK   56  A    between atoms: _124  and  _127
REMARK   57  A    between atoms: _127  and  _128
REMARK   58  A    between atoms: _131  and  _133
REMARK   59  A    between atoms: _133  and  _134
REMARK   60  A    between atoms: _136  and  _138
REMARK   61  A    between atoms: _138  and  _139
REMARK   62  A    between atoms: _141  and  _143
REMARK   63  A    between atoms: _143  and  _144
REMARK   64  A    between atoms: _143  and  _146
REMARK   65  A    between atoms: _146  and  _147
REMARK   66  A    between atoms: _150  and  _152
REMARK   67  A    between atoms: _152  and  _153
REMARK   68  A    between atoms: _155  and  _157
REMARK   69  A    between atoms: _157  and  _158
REMARK   70  A    between atoms: _160  and  _162
REMARK   71  A    between atoms: _162  and  _163
REMARK   72  A    between atoms: _162  and  _165
REMARK   73  A    between atoms: _165  and  _166
REMARK   74  A    between atoms: _172  and  _174
REMARK   75  A    between atoms: _174  and  _175
REMARK   76  A    between atoms: _174  and  _177
REMARK   77  A    between atoms: _177  and  _178
REMARK   78  A    between atoms: _181  and  _183
REMARK   79  A    between atoms: _183  and  _184
REMARK   80  A    between atoms: _183  and  _186
REMARK   81  A    between atoms: _189  and  _191
REMARK   82  A    between atoms: _191  and  _192
REMARK   83  A    between atoms: _191  and  _194
REMARK   84  A    between atoms: _194  and  _195
REMARK   85  A    between atoms: _199  and  _200
REMARK   86  A    between atoms: _205  and  _207
REMARK   87  A    between atoms: _207  and  _208
REMARK   88  A    between atoms: _207  and  _210
REMARK   89  A    between atoms: _210  and  _211
REMARK   90  A    between atoms: _215  and  _216
REMARK   91  A    between atoms: _221  and  _223
REMARK   92  A    between atoms: _223  and  _224
REMARK   93  A    between atoms: _223  and  _226
REMARK   94  A    between atoms: _229  and  _231
REMARK   95  A    between atoms: _231  and  _232
REMARK   96  A    between atoms: _231  and  _234
REMARK   97  A    between atoms: _234  and  _235
REMARK   98  A    between atoms: _240  and  _242
REMARK   99  A    between atoms: _242  and  _243
REMARK  100  A    between atoms: _242  and  _245
REMARK  101  A    between atoms: _245  and  _246
REMARK  102  A    between atoms: _249  and  _251
REMARK  103  A    between atoms: _251  and  _252
REMARK  104  A    between atoms: _251  and  _254
REMARK  105  A    between atoms: _254  and  _255
REMARK  106  A    between atoms: _258  and  _260
REMARK  107  A    between atoms: _260  and  _261
REMARK  108  A    between atoms: _263  and  _265
REMARK  109  A    between atoms: _265  and  _266
REMARK  110  A    between atoms: _265  and  _268
REMARK  111  A    between atoms: _268  and  _269
REMARK  112  A    between atoms: _269  and  _270
REMARK  113  A    between atoms: _270  and  _271
REMARK  114  A    between atoms: _280  and  _282
REMARK  115  A    between atoms: _282  and  _283
REMARK  116  A    between atoms: _282  and  _285
REMARK  117  A    between atoms: _285  and  _286
REMARK  118  A    between atoms: _286  and  _287
REMARK  119  A    between atoms: _287  and  _288
REMARK  120  A    between atoms: _297  and  _299
REMARK  121  A    between atoms: _299  and  _300
REMARK  122  A    between atoms: _299  and  _302
REMARK  123  A    between atoms: _302  and  _303
REMARK  124  A    between atoms: _306  and  _308
REMARK  125  A    between atoms: _308  and  _309
REMARK  126  A    between atoms: _308  and  _311
REMARK  127  A    between atoms: _311  and  _312
REMARK  128  A    between atoms: _315  and  _317
REMARK  129  A    between atoms: _317  and  _318
REMARK  130  A    between atoms: _317  and  _320
REMARK  131  A    between atoms: _320  and  _321
REMARK  132  A    between atoms: _324  and  _326
REMARK  133  A    between atoms: _326  and  _327
REMARK  134  A    between atoms: _326  and  _329
REMARK  135  A    between atoms: _329  and  _330
REMARK  136  A    between atoms: _333  and  _335
REMARK  137  A    between atoms: _335  and  _336
REMARK  138  A    between atoms: _338  and  _340
REMARK  139  A    between atoms: _340  and  _341
REMARK  140  A    between atoms: _344  and  _346
REMARK  141  A    between atoms: _346  and  _347
REMARK  142  A    between atoms: _346  and  _349
REMARK  143  A    between atoms: _349  and  _350
REMARK  144  A    between atoms: _353  and  _355
REMARK  145  A    between atoms: _355  and  _356
REMARK  146  A    between atoms: _355  and  _358
REMARK  147  A    between atoms: _358  and  _359
REMARK  148  A    between atoms: _362  and  _364
REMARK  149  A    between atoms: _364  and  _365
REMARK  150  A    between atoms: _364  and  _367
REMARK  151  A    between atoms: _367  and  _368
REMARK  152  A    between atoms: _371  and  _373
REMARK  153  A    between atoms: _373  and  _374
REMARK  154  A    between atoms: _373  and  _376
REMARK  155  A    between atoms: _379  and  _381
REMARK  156  A    between atoms: _381  and  _382
REMARK  157  A    between atoms: _381  and  _384
REMARK  158  A    between atoms: _384  and  _385
REMARK  159  A    between atoms: _388  and  _390
REMARK  160  A    between atoms: _390  and  _391
REMARK  161  A    between atoms: _390  and  _393
REMARK  162  A    between atoms: _393  and  _394
REMARK  163  A    between atoms: _394  and  _395
REMARK  164  A    between atoms: _395  and  _396
REMARK  165  A    between atoms: _396  and  _397
REMARK  166  A    between atoms: _401  and  _403
REMARK  167  A    between atoms: _403  and  _404
REMARK  168  A    between atoms: _403  and  _406
REMARK  169  A    between atoms: _406  and  _407
REMARK  170  A    between atoms: _407  and  _408
REMARK  171  A    between atoms: _410  and  _412
REMARK  172  A    between atoms: _412  and  _413
REMARK  173  A    between atoms: _412  and  _415
REMARK  174  A    between atoms: _415  and  _416
REMARK  175  A    between atoms: _419  and  _421
REMARK  176  A    between atoms: _421  and  _422
REMARK  177  A    between atoms: _424  and  _426
REMARK  178  A    between atoms: _426  and  _427
REMARK  179  A    between atoms: _429  and  _431
REMARK  180  A    between atoms: _431  and  _432
REMARK  181  A    between atoms: _431  and  _434
REMARK  182  A    between atoms: _434  and  _435
REMARK  183  A    between atoms: _438  and  _440
REMARK  184  A    between atoms: _440  and  _441
REMARK  185  A    between atoms: _443  and  _445
REMARK  186  A    between atoms: _445  and  _446
REMARK  187  A    between atoms: _448  and  _450
REMARK  188  A    between atoms: _450  and  _451
REMARK  189  A    between atoms: _450  and  _453
REMARK  190  A    between atoms: _453  and  _454
REMARK  191  A    between atoms: _460  and  _462
REMARK  192  A    between atoms: _462  and  _463
REMARK  193  A    between atoms: _462  and  _465
REMARK  194  A    between atoms: _465  and  _466
REMARK  195  A    between atoms: _469  and  _471
REMARK  196  A    between atoms: _471  and  _472
REMARK  197  A    between atoms: _471  and  _474
REMARK  198  A    between atoms: _477  and  _479
REMARK  199  A    between atoms: _479  and  _480
REMARK  200  A    between atoms: _479  and  _482
REMARK  201  A    between atoms: _482  and  _483
REMARK  202  A    between atoms: _487  and  _488
REMARK  203  A    between atoms: _493  and  _495
REMARK  204  A    between atoms: _495  and  _496
REMARK  205  A    between atoms: _495  and  _498
REMARK  206  A    between atoms: _498  and  _499
REMARK  207  A    between atoms: _503  and  _504
REMARK  208  A    between atoms: _509  and  _511
REMARK  209  A    between atoms: _511  and  _512
REMARK  210  A    between atoms: _511  and  _514
REMARK  211  A    between atoms: _517  and  _519
REMARK  212  A    between atoms: _519  and  _520
REMARK  213  A    between atoms: _519  and  _522
REMARK  214  A    between atoms: _522  and  _523
REMARK  215  A    between atoms: _528  and  _530
REMARK  216  A    between atoms: _530  and  _531
REMARK  217  A    between atoms: _530  and  _533
REMARK  218  A    between atoms: _533  and  _534
REMARK  219  A    between atoms: _537  and  _539
REMARK  220  A    between atoms: _539  and  _540
REMARK  221  A    between atoms: _539  and  _542
REMARK  222  A    between atoms: _542  and  _543
REMARK  223  A    between atoms: _546  and  _548
REMARK  224  A    between atoms: _548  and  _549
REMARK  225  A    between atoms: _551  and  _553
REMARK  226  A    between atoms: _553  and  _554
REMARK  227  A    between atoms: _553  and  _556
REMARK  228  A    between atoms: _556  and  _557
REMARK  229  A    between atoms: _557  and  _558
REMARK  230  A    between atoms: _558  and  _559
REMARK  231  A    between atoms: _568  and  _570
REMARK  232  A    between atoms: _570  and  _571
REMARK  233  A    between atoms: _570  and  _573
REMARK  234  A    between atoms: _573  and  _574
REMARK                            x       y       z     vdW  Elec       q    Type
REMARK                         _______ _______ _______ _____ _____    ______ ____
ROOT
ATOM      1  O   HOH     1      13.089 -28.045 -10.245  0.00  0.00    +0.000 OA
ENDROOT
TORSDOF 0
REMARK  Name = ../refined-set-2016/2o4s/2o4s_pocket.pdb
REMARK  234 active torsions:
REMARK  status: ('A' for Active; 'I' for Inactive)
REMARK    1  A    between atoms: _1  and  _3
REMARK    2  A    between atoms: _3  and  _4
REMARK    3  A    between atoms: _3  and  _6
REMARK    4  A    between atoms: _6  and  _7
REMARK    5  A    between atoms: _7  and  _8
REMARK    6  A    between atoms: _8  and  _9
REMARK    7  A    between atoms: _18  and  _20
REMARK    8  A    between atoms: _20  and  _21
REMARK    9  A    between atoms: _20  and  _23
REMARK   10  A    between atoms: _23  and  _24
REMARK   11  A    between atoms: _27  and  _29
REMARK   12  A    between atoms: _29  and  _30
REMARK   13  A    between atoms: _29  and  _32
REMARK   14  A    between atoms: _32  and  _33
REMARK   15  A    between atoms: _36  and  _38
REMARK   16  A    between atoms: _38  and  _39
REMARK   17  A    between atoms: _38  and  _41
REMARK   18  A    between atoms: _41  and  _42
REMARK   19  A    between atoms: _45  and  _47
REMARK   20  A    between atoms: _47  and  _48
REMARK   21  A    between atoms: _47  and  _50
REMARK   22  A    between atoms: _50  and  _51
REMARK   23  A    between atoms: _54  and  _56
REMARK   24  A    between atoms: _56  and  _57
REMARK   25  A    between atoms: _59  and  _61
REMARK   26  A    between atoms: _61  and  _62
REMARK   27  A    between atoms: _65  and  _67
REMARK   28  A    between atoms: _67  and  _68
REMARK   29  A    between atoms: _67  and  _70
REMARK   30  A    between atoms: _70  and  _71
REMARK   31  A    between atoms: _74  and  _76
REMARK   32  A    between atoms: _76  and  _77
REMARK   33  A    between atoms: _76  and  _79
REMARK   34  A    between atoms: _79  and  _80
REMARK   35  A    between atoms: _83  and  _85
REMARK   36  A    between atoms: _85  and  _86
REMARK   37  A    between atoms: _85  and  _88
REMARK   38  A    between atoms: _88  and  _89
REMARK   39  A    between atoms: _92  and  _94
REMARK   40  A    between atoms: _94  and  _95
REMARK   41  A    between atoms: _94  and  _97
REMARK   42  A    between atoms: _100  and  _102
REMARK   43  A    between atoms: _102  and  _103
REMARK   44  A    between atoms: _102  and  _105
REMARK   45  A    between atoms: _105  and  _106
REMARK   46  A    between atoms: _106  and  _107
REMARK   47  A    between atoms: _107  and  _108
REMARK   48  A    between atoms: _108  and  _109
REMARK   49  A    between atoms: _113  and  _115
REMARK   50  A    between atoms: _115  and  _116
REMARK   51  A    between atoms: _115  and  _118
REMARK   52  A    between atoms: _118  and  _119
REMARK   53  A    between atoms: _119  and  _120
REMARK   54  A    between atoms: _122  and  _124
REMARK   55  A    between atoms: _124  and  _125
REMARK   56  A    between atoms: _124  and  _127
REMARK   57  A    between atoms: _127  and  _128
REMARK   58  A    between atoms: _131  and  _133
REMARK   59  A    between atoms: _133  and  _134
REMARK   60  A    between atoms: _136  and  _138
REMARK   61  A    between atoms: _138  and  _139
REMARK   62  A    between atoms: _141  and  _143
REMARK   63  A    between atoms: _143  and  _144
REMARK   64  A    between atoms: _143  and  _146
REMARK   65  A    between atoms: _146  and  _147
REMARK   66  A    between atoms: _150  and  _152
REMARK   67  A    between atoms: _152  and  _153
REMARK   68  A    between atoms: _155  and  _157
REMARK   69  A    between atoms: _157  and  _158
REMARK   70  A    between atoms: _160  and  _162
REMARK   71  A    between atoms: _162  and  _163
REMARK   72  A    between atoms: _162  and  _165
REMARK   73  A    between atoms: _165  and  _166
REMARK   74  A    between atoms: _172  and  _174
REMARK   75  A    between atoms: _174  and  _175
REMARK   76  A    between atoms: _174  and  _177
REMARK   77  A    between atoms: _177  and  _178
REMARK   78  A    between atoms: _181  and  _183
REMARK   79  A    between atoms: _183  and  _184
REMARK   80  A    between atoms: _183  and  _186
REMARK   81  A    between atoms: _189  and  _191
REMARK   82  A    between atoms: _191  and  _192
REMARK   83  A    between atoms: _191  and  _194
REMARK   84  A    between atoms: _194  and  _195
REMARK   85  A    between atoms: _199  and  _200
REMARK   86  A    between atoms: _205  and  _207
REMARK   87  A    between atoms: _207  and  _208
REMARK   88  A    between atoms: _207  and  _210
REMARK   89  A    between atoms: _210  and  _211
REMARK   90  A    between atoms: _215  and  _216
REMARK   91  A    between atoms: _221  and  _223
REMARK   92  A    between atoms: _223  and  _224
REMARK   93  A    between atoms: _223  and  _226
REMARK   94  A    between atoms: _229  and  _231
REMARK   95  A    between atoms: _231  and  _232
REMARK   96  A    between atoms: _231  and  _234
REMARK   97  A    between atoms: _234  and  _235
REMARK   98  A    between atoms: _240  and  _242
REMARK   99  A    between atoms: _242  and  _243
REMARK  100  A    between atoms: _242  and  _245
REMARK  101  A    between atoms: _245  and  _246
REMARK  102  A    between atoms: _249  and  _251
REMARK  103  A    between atoms: _251  and  _252
REMARK  104  A    between atoms: _251  and  _254
REMARK  105  A    between atoms: _254  and  _255
REMARK  106  A    between atoms: _258  and  _260
REMARK  107  A    between atoms: _260  and  _261
REMARK  108  A    between atoms: _263  and  _265
REMARK  109  A    between atoms: _265  and  _266
REMARK  110  A    between atoms: _265  and  _268
REMARK  111  A    between atoms: _268  and  _269
REMARK  112  A    between atoms: _269  and  _270
REMARK  113  A    between atoms: _270  and  _271
REMARK  114  A    between atoms: _280  and  _282
REMARK  115  A    between atoms: _282  and  _283
REMARK  116  A    between atoms: _282  and  _285
REMARK  117  A    between atoms: _285  and  _286
REMARK  118  A    between atoms: _286  and  _287
REMARK  119  A    between atoms: _287  and  _288
REMARK  120  A    between atoms: _297  and  _299
REMARK  121  A    between atoms: _299  and  _300
REMARK  122  A    between atoms: _299  and  _302
REMARK  123  A    between atoms: _302  and  _303
REMARK  124  A    between atoms: _306  and  _308
REMARK  125  A    between atoms: _308  and  _309
REMARK  126  A    between atoms: _308  and  _311
REMARK  127  A    between atoms: _311  and  _312
REMARK  128  A    between atoms: _315  and  _317
REMARK  129  A    between atoms: _317  and  _318
REMARK  130  A    between atoms: _317  and  _320
REMARK  131  A    between atoms: _320  and  _321
REMARK  132  A    between atoms: _324  and  _326
REMARK  133  A    between atoms: _326  and  _327
REMARK  134  A    between atoms: _326  and  _329
REMARK  135  A    between atoms: _329  and  _330
REMARK  136  A    between atoms: _333  and  _335
REMARK  137  A    between atoms: _335  and  _336
REMARK  138  A    between atoms: _338  and  _340
REMARK  139  A    between atoms: _340  and  _341
REMARK  140  A    between atoms: _344  and  _346
REMARK  141  A    between atoms: _346  and  _347
REMARK  142  A    between atoms: _346  and  _349
REMARK  143  A    between atoms: _349  and  _350
REMARK  144  A    between atoms: _353  and  _355
REMARK  145  A    between atoms: _355  and  _356
REMARK  146  A    between atoms: _355  and  _358
REMARK  147  A    between atoms: _358  and  _359
REMARK  148  A    between atoms: _362  and  _364
REMARK  149  A    between atoms: _364  and  _365
REMARK  150  A    between atoms: _364  and  _367
REMARK  151  A    between atoms: _367  and  _368
REMARK  152  A    between atoms: _371  and  _373
REMARK  153  A    between atoms: _373  and  _374
REMARK  154  A    between atoms: _373  and  _376
REMARK  155  A    between atoms: _379  and  _381
REMARK  156  A    between atoms: _381  and  _382
REMARK  157  A    between atoms: _381  and  _384
REMARK  158  A    between atoms: _384  and  _385
REMARK  159  A    between atoms: _388  and  _390
REMARK  160  A    between atoms: _390  and  _391
REMARK  161  A    between atoms: _390  and  _393
REMARK  162  A    between atoms: _393  and  _394
REMARK  163  A    between atoms: _394  and  _395
REMARK  164  A    between atoms: _395  and  _396
REMARK  165  A    between atoms: _396  and  _397
REMARK  166  A    between atoms: _401  and  _403
REMARK  167  A    between atoms: _403  and  _404
REMARK  168  A    between atoms: _403  and  _406
REMARK  169  A    between atoms: _406  and  _407
REMARK  170  A    between atoms: _407  and  _408
REMARK  171  A    between atoms: _410  and  _412
REMARK  172  A    between atoms: _412  and  _413
REMARK  173  A    between atoms: _412  and  _415
REMARK  174  A    between atoms: _415  and  _416
REMARK  175  A    between atoms: _419  and  _421
REMARK  176  A    between atoms: _421  and  _422
REMARK  177  A    between atoms: _424  and  _426
REMARK  178  A    between atoms: _426  and  _427
REMARK  179  A    between atoms: _429  and  _431
REMARK  180  A    between atoms: _431  and  _432
REMARK  181  A    between atoms: _431  and  _434
REMARK  182  A    between atoms: _434  and  _435
REMARK  183  A    between atoms: _438  and  _440
REMARK  184  A    between atoms: _440  and  _441
REMARK  185  A    between atoms: _443  and  _445
REMARK  186  A    between atoms: _445  and  _446
REMARK  187  A    between atoms: _448  and  _450
REMARK  188  A    between atoms: _450  and  _451
REMARK  189  A    between atoms: _450  and  _453
REMARK  190  A    between atoms: _453  and  _454
REMARK  191  A    between atoms: _460  and  _462
REMARK  192  A    between atoms: _462  and  _463
REMARK  193  A    between atoms: _462  and  _465
REMARK  194  A    between atoms: _465  and  _466
REMARK  195  A    between atoms: _469  and  _471
REMARK  196  A    between atoms: _471  and  _472
REMARK  197  A    between atoms: _471  and  _474
REMARK  198  A    between atoms: _477  and  _479
REMARK  199  A    between atoms: _479  and  _480
REMARK  200  A    between atoms: _479  and  _482
REMARK  201  A    between atoms: _482  and  _483
REMARK  202  A    between atoms: _487  and  _488
REMARK  203  A    between atoms: _493  and  _495
REMARK  204  A    between atoms: _495  and  _496
REMARK  205  A    between atoms: _495  and  _498
REMARK  206  A    between atoms: _498  and  _499
REMARK  207  A    between atoms: _503  and  _504
REMARK  208  A    between atoms: _509  and  _511
REMARK  209  A    between atoms: _511  and  _512
REMARK  210  A    between atoms: _511  and  _514
REMARK  211  A    between atoms: _517  and  _519
REMARK  212  A    between atoms: _519  and  _520
REMARK  213  A    between atoms: _519  and  _522
REMARK  214  A    between atoms: _522  and  _523
REMARK  215  A    between atoms: _528  and  _530
REMARK  216  A    between atoms: _530  and  _531
REMARK  217  A    between atoms: _530  and  _533
REMARK  218  A    between atoms: _533  and  _534
REMARK  219  A    between atoms: _537  and  _539
REMARK  220  A    between atoms: _539  and  _540
REMARK  221  A    between atoms: _539  and  _542
REMARK  222  A    between atoms: _542  and  _543
REMARK  223  A    between atoms: _546  and  _548
REMARK  224  A    between atoms: _548  and  _549
REMARK  225  A    between atoms: _551  and  _553
REMARK  226  A    between atoms: _553  and  _554
REMARK  227  A    between atoms: _553  and  _556
REMARK  228  A    between atoms: _556  and  _557
REMARK  229  A    between atoms: _557  and  _558
REMARK  230  A    between atoms: _558  and  _559
REMARK  231  A    between atoms: _568  and  _570
REMARK  232  A    between atoms: _570  and  _571
REMARK  233  A    between atoms: _570  and  _573
REMARK  234  A    between atoms: _573  and  _574
REMARK                            x       y       z     vdW  Elec       q    Type
REMARK                         _______ _______ _______ _____ _____    ______ ____
ROOT
ATOM      1  O   HOH     1      17.392 -27.513 -10.190  0.00  0.00    +0.000 OA
ENDROOT
TORSDOF 0
REMARK  Name = ../refined-set-2016/2o4s/2o4s_pocket.pdb
REMARK  234 active torsions:
REMARK  status: ('A' for Active; 'I' for Inactive)
REMARK    1  A    between atoms: _1  and  _3
REMARK    2  A    between atoms: _3  and  _4
REMARK    3  A    between atoms: _3  and  _6
REMARK    4  A    between atoms: _6  and  _7
REMARK    5  A    between atoms: _7  and  _8
REMARK    6  A    between atoms: _8  and  _9
REMARK    7  A    between atoms: _18  and  _20
REMARK    8  A    between atoms: _20  and  _21
REMARK    9  A    between atoms: _20  and  _23
REMARK   10  A    between atoms: _23  and  _24
REMARK   11  A    between atoms: _27  and  _29
REMARK   12  A    between atoms: _29  and  _30
REMARK   13  A    between atoms: _29  and  _32
REMARK   14  A    between atoms: _32  and  _33
REMARK   15  A    between atoms: _36  and  _38
REMARK   16  A    between atoms: _38  and  _39
REMARK   17  A    between atoms: _38  and  _41
REMARK   18  A    between atoms: _41  and  _42
REMARK   19  A    between atoms: _45  and  _47
REMARK   20  A    between atoms: _47  and  _48
REMARK   21  A    between atoms: _47  and  _50
REMARK   22  A    between atoms: _50  and  _51
REMARK   23  A    between atoms: _54  and  _56
REMARK   24  A    between atoms: _56  and  _57
REMARK   25  A    between atoms: _59  and  _61
REMARK   26  A    between atoms: _61  and  _62
REMARK   27  A    between atoms: _65  and  _67
REMARK   28  A    between atoms: _67  and  _68
REMARK   29  A    between atoms: _67  and  _70
REMARK   30  A    between atoms: _70  and  _71
REMARK   31  A    between atoms: _74  and  _76
REMARK   32  A    between atoms: _76  and  _77
REMARK   33  A    between atoms: _76  and  _79
REMARK   34  A    between atoms: _79  and  _80
REMARK   35  A    between atoms: _83  and  _85
REMARK   36  A    between atoms: _85  and  _86
REMARK   37  A    between atoms: _85  and  _88
REMARK   38  A    between atoms: _88  and  _89
REMARK   39  A    between atoms: _92  and  _94
REMARK   40  A    between atoms: _94  and  _95
REMARK   41  A    between atoms: _94  and  _97
REMARK   42  A    between atoms: _100  and  _102
REMARK   43  A    between atoms: _102  and  _103
REMARK   44  A    between atoms: _102  and  _105
REMARK   45  A    between atoms: _105  and  _106
REMARK   46  A    between atoms: _106  and  _107
REMARK   47  A    between atoms: _107  and  _108
REMARK   48  A    between atoms: _108  and  _109
REMARK   49  A    between atoms: _113  and  _115
REMARK   50  A    between atoms: _115  and  _116
REMARK   51  A    between atoms: _115  and  _118
REMARK   52  A    between atoms: _118  and  _119
REMARK   53  A    between atoms: _119  and  _120
REMARK   54  A    between atoms: _122  and  _124
REMARK   55  A    between atoms: _124  and  _125
REMARK   56  A    between atoms: _124  and  _127
REMARK   57  A    between atoms: _127  and  _128
REMARK   58  A    between atoms: _131  and  _133
REMARK   59  A    between atoms: _133  and  _134
REMARK   60  A    between atoms: _136  and  _138
REMARK   61  A    between atoms: _138  and  _139
REMARK   62  A    between atoms: _141  and  _143
REMARK   63  A    between atoms: _143  and  _144
REMARK   64  A    between atoms: _143  and  _146
REMARK   65  A    between atoms: _146  and  _147
REMARK   66  A    between atoms: _150  and  _152
REMARK   67  A    between atoms: _152  and  _153
REMARK   68  A    between atoms: _155  and  _157
REMARK   69  A    between atoms: _157  and  _158
REMARK   70  A    between atoms: _160  and  _162
REMARK   71  A    between atoms: _162  and  _163
REMARK   72  A    between atoms: _162  and  _165
REMARK   73  A    between atoms: _165  and  _166
REMARK   74  A    between atoms: _172  and  _174
REMARK   75  A    between atoms: _174  and  _175
REMARK   76  A    between atoms: _174  and  _177
REMARK   77  A    between atoms: _177  and  _178
REMARK   78  A    between atoms: _181  and  _183
REMARK   79  A    between atoms: _183  and  _184
REMARK   80  A    between atoms: _183  and  _186
REMARK   81  A    between atoms: _189  and  _191
REMARK   82  A    between atoms: _191  and  _192
REMARK   83  A    between atoms: _191  and  _194
REMARK   84  A    between atoms: _194  and  _195
REMARK   85  A    between atoms: _199  and  _200
REMARK   86  A    between atoms: _205  and  _207
REMARK   87  A    between atoms: _207  and  _208
REMARK   88  A    between atoms: _207  and  _210
REMARK   89  A    between atoms: _210  and  _211
REMARK   90  A    between atoms: _215  and  _216
REMARK   91  A    between atoms: _221  and  _223
REMARK   92  A    between atoms: _223  and  _224
REMARK   93  A    between atoms: _223  and  _226
REMARK   94  A    between atoms: _229  and  _231
REMARK   95  A    between atoms: _231  and  _232
REMARK   96  A    between atoms: _231  and  _234
REMARK   97  A    between atoms: _234  and  _235
REMARK   98  A    between atoms: _240  and  _242
REMARK   99  A    between atoms: _242  and  _243
REMARK  100  A    between atoms: _242  and  _245
REMARK  101  A    between atoms: _245  and  _246
REMARK  102  A    between atoms: _249  and  _251
REMARK  103  A    between atoms: _251  and  _252
REMARK  104  A    between atoms: _251  and  _254
REMARK  105  A    between atoms: _254  and  _255
REMARK  106  A    between atoms: _258  and  _260
REMARK  107  A    between atoms: _260  and  _261
REMARK  108  A    between atoms: _263  and  _265
REMARK  109  A    between atoms: _265  and  _266
REMARK  110  A    between atoms: _265  and  _268
REMARK  111  A    between atoms: _268  and  _269
REMARK  112  A    between atoms: _269  and  _270
REMARK  113  A    between atoms: _270  and  _271
REMARK  114  A    between atoms: _280  and  _282
REMARK  115  A    between atoms: _282  and  _283
REMARK  116  A    between atoms: _282  and  _285
REMARK  117  A    between atoms: _285  and  _286
REMARK  118  A    between atoms: _286  and  _287
REMARK  119  A    between atoms: _287  and  _288
REMARK  120  A    between atoms: _297  and  _299
REMARK  121  A    between atoms: _299  and  _300
REMARK  122  A    between atoms: _299  and  _302
REMARK  123  A    between atoms: _302  and  _303
REMARK  124  A    between atoms: _306  and  _308
REMARK  125  A    between atoms: _308  and  _309
REMARK  126  A    between atoms: _308  and  _311
REMARK  127  A    between atoms: _311  and  _312
REMARK  128  A    between atoms: _315  and  _317
REMARK  129  A    between atoms: _317  and  _318
REMARK  130  A    between atoms: _317  and  _320
REMARK  131  A    between atoms: _320  and  _321
REMARK  132  A    between atoms: _324  and  _326
REMARK  133  A    between atoms: _326  and  _327
REMARK  134  A    between atoms: _326  and  _329
REMARK  135  A    between atoms: _329  and  _330
REMARK  136  A    between atoms: _333  and  _335
REMARK  137  A    between atoms: _335  and  _336
REMARK  138  A    between atoms: _338  and  _340
REMARK  139  A    between atoms: _340  and  _341
REMARK  140  A    between atoms: _344  and  _346
REMARK  141  A    between atoms: _346  and  _347
REMARK  142  A    between atoms: _346  and  _349
REMARK  143  A    between atoms: _349  and  _350
REMARK  144  A    between atoms: _353  and  _355
REMARK  145  A    between atoms: _355  and  _356
REMARK  146  A    between atoms: _355  and  _358
REMARK  147  A    between atoms: _358  and  _359
REMARK  148  A    between atoms: _362  and  _364
REMARK  149  A    between atoms: _364  and  _365
REMARK  150  A    between atoms: _364  and  _367
REMARK  151  A    between atoms: _367  and  _368
REMARK  152  A    between atoms: _371  and  _373
REMARK  153  A    between atoms: _373  and  _374
REMARK  154  A    between atoms: _373  and  _376
REMARK  155  A    between atoms: _379  and  _381
REMARK  156  A    between atoms: _381  and  _382
REMARK  157  A    between atoms: _381  and  _384
REMARK  158  A    between atoms: _384  and  _385
REMARK  159  A    between atoms: _388  and  _390
REMARK  160  A    between atoms: _390  and  _391
REMARK  161  A    between atoms: _390  and  _393
REMARK  162  A    between atoms: _393  and  _394
REMARK  163  A    between atoms: _394  and  _395
REMARK  164  A    between atoms: _395  and  _396
REMARK  165  A    between atoms: _396  and  _397
REMARK  166  A    between atoms: _401  and  _403
REMARK  167  A    between atoms: _403  and  _404
REMARK  168  A    between atoms: _403  and  _406
REMARK  169  A    between atoms: _406  and  _407
REMARK  170  A    between atoms: _407  and  _408
REMARK  171  A    between atoms: _410  and  _412
REMARK  172  A    between atoms: _412  and  _413
REMARK  173  A    between atoms: _412  and  _415
REMARK  174  A    between atoms: _415  and  _416
REMARK  175  A    between atoms: _419  and  _421
REMARK  176  A    between atoms: _421  and  _422
REMARK  177  A    between atoms: _424  and  _426
REMARK  178  A    between atoms: _426  and  _427
REMARK  179  A    between atoms: _429  and  _431
REMARK  180  A    between atoms: _431  and  _432
REMARK  181  A    between atoms: _431  and  _434
REMARK  182  A    between atoms: _434  and  _435
REMARK  183  A    between atoms: _438  and  _440
REMARK  184  A    between atoms: _440  and  _441
REMARK  185  A    between atoms: _443  and  _445
REMARK  186  A    between atoms: _445  and  _446
REMARK  187  A    between atoms: _448  and  _450
REMARK  188  A    between atoms: _450  and  _451
REMARK  189  A    between atoms: _450  and  _453
REMARK  190  A    between atoms: _453  and  _454
REMARK  191  A    between atoms: _460  and  _462
REMARK  192  A    between atoms: _462  and  _463
REMARK  193  A    between atoms: _462  and  _465
REMARK  194  A    between atoms: _465  and  _466
REMARK  195  A    between atoms: _469  and  _471
REMARK  196  A    between atoms: _471  and  _472
REMARK  197  A    between atoms: _471  and  _474
REMARK  198  A    between atoms: _477  and  _479
REMARK  199  A    between atoms: _479  and  _480
REMARK  200  A    between atoms: _479  and  _482
REMARK  201  A    between atoms: _482  and  _483
REMARK  202  A    between atoms: _487  and  _488
REMARK  203  A    between atoms: _493  and  _495
REMARK  204  A    between atoms: _495  and  _496
REMARK  205  A    between atoms: _495  and  _498
REMARK  206  A    between atoms: _498  and  _499
REMARK  207  A    between atoms: _503  and  _504
REMARK  208  A    between atoms: _509  and  _511
REMARK  209  A    between atoms: _511  and  _512
REMARK  210  A    between atoms: _511  and  _514
REMARK  211  A    between atoms: _517  and  _519
REMARK  212  A    between atoms: _519  and  _520
REMARK  213  A    between atoms: _519  and  _522
REMARK  214  A    between atoms: _522  and  _523
REMARK  215  A    between atoms: _528  and  _530
REMARK  216  A    between atoms: _530  and  _531
REMARK  217  A    between atoms: _530  and  _533
REMARK  218  A    between atoms: _533  and  _534
REMARK  219  A    between atoms: _537  and  _539
REMARK  220  A    between atoms: _539  and  _540
REMARK  221  A    between atoms: _539  and  _542
REMARK  222  A    between atoms: _542  and  _543
REMARK  223  A    between atoms: _546  and  _548
REMARK  224  A    between atoms: _548  and  _549
REMARK  225  A    between atoms: _551  and  _553
REMARK  226  A    between atoms: _553  and  _554
REMARK  227  A    between atoms: _553  and  _556
REMARK  228  A    between atoms: _556  and  _557
REMARK  229  A    between atoms: _557  and  _558
REMARK  230  A    between atoms: _558  and  _559
REMARK  231  A    between atoms: _568  and  _570
REMARK  232  A    between atoms: _570  and  _571
REMARK  233  A    between atoms: _570  and  _573
REMARK  234  A    between atoms: _573  and  _574
REMARK                            x       y       z     vdW  Elec       q    Type
REMARK                         _______ _______ _______ _____ _____    ______ ____
ROOT
ATOM      1  O   HOH     1      22.676 -30.308 -24.473  0.00  0.00    +0.000 OA
ENDROOT
TORSDOF 0
REMARK  Name = ../refined-set-2016/2o4s/2o4s_pocket.pdb
REMARK  234 active torsions:
REMARK  status: ('A' for Active; 'I' for Inactive)
REMARK    1  A    between atoms: _1  and  _3
REMARK    2  A    between atoms: _3  and  _4
REMARK    3  A    between atoms: _3  and  _6
REMARK    4  A    between atoms: _6  and  _7
REMARK    5  A    between atoms: _7  and  _8
REMARK    6  A    between atoms: _8  and  _9
REMARK    7  A    between atoms: _18  and  _20
REMARK    8  A    between atoms: _20  and  _21
REMARK    9  A    between atoms: _20  and  _23
REMARK   10  A    between atoms: _23  and  _24
REMARK   11  A    between atoms: _27  and  _29
REMARK   12  A    between atoms: _29  and  _30
REMARK   13  A    between atoms: _29  and  _32
REMARK   14  A    between atoms: _32  and  _33
REMARK   15  A    between atoms: _36  and  _38
REMARK   16  A    between atoms: _38  and  _39
REMARK   17  A    between atoms: _38  and  _41
REMARK   18  A    between atoms: _41  and  _42
REMARK   19  A    between atoms: _45  and  _47
REMARK   20  A    between atoms: _47  and  _48
REMARK   21  A    between atoms: _47  and  _50
REMARK   22  A    between atoms: _50  and  _51
REMARK   23  A    between atoms: _54  and  _56
REMARK   24  A    between atoms: _56  and  _57
REMARK   25  A    between atoms: _59  and  _61
REMARK   26  A    between atoms: _61  and  _62
REMARK   27  A    between atoms: _65  and  _67
REMARK   28  A    between atoms: _67  and  _68
REMARK   29  A    between atoms: _67  and  _70
REMARK   30  A    between atoms: _70  and  _71
REMARK   31  A    between atoms: _74  and  _76
REMARK   32  A    between atoms: _76  and  _77
REMARK   33  A    between atoms: _76  and  _79
REMARK   34  A    between atoms: _79  and  _80
REMARK   35  A    between atoms: _83  and  _85
REMARK   36  A    between atoms: _85  and  _86
REMARK   37  A    between atoms: _85  and  _88
REMARK   38  A    between atoms: _88  and  _89
REMARK   39  A    between atoms: _92  and  _94
REMARK   40  A    between atoms: _94  and  _95
REMARK   41  A    between atoms: _94  and  _97
REMARK   42  A    between atoms: _100  and  _102
REMARK   43  A    between atoms: _102  and  _103
REMARK   44  A    between atoms: _102  and  _105
REMARK   45  A    between atoms: _105  and  _106
REMARK   46  A    between atoms: _106  and  _107
REMARK   47  A    between atoms: _107  and  _108
REMARK   48  A    between atoms: _108  and  _109
REMARK   49  A    between atoms: _113  and  _115
REMARK   50  A    between atoms: _115  and  _116
REMARK   51  A    between atoms: _115  and  _118
REMARK   52  A    between atoms: _118  and  _119
REMARK   53  A    between atoms: _119  and  _120
REMARK   54  A    between atoms: _122  and  _124
REMARK   55  A    between atoms: _124  and  _125
REMARK   56  A    between atoms: _124  and  _127
REMARK   57  A    between atoms: _127  and  _128
REMARK   58  A    between atoms: _131  and  _133
REMARK   59  A    between atoms: _133  and  _134
REMARK   60  A    between atoms: _136  and  _138
REMARK   61  A    between atoms: _138  and  _139
REMARK   62  A    between atoms: _141  and  _143
REMARK   63  A    between atoms: _143  and  _144
REMARK   64  A    between atoms: _143  and  _146
REMARK   65  A    between atoms: _146  and  _147
REMARK   66  A    between atoms: _150  and  _152
REMARK   67  A    between atoms: _152  and  _153
REMARK   68  A    between atoms: _155  and  _157
REMARK   69  A    between atoms: _157  and  _158
REMARK   70  A    between atoms: _160  and  _162
REMARK   71  A    between atoms: _162  and  _163
REMARK   72  A    between atoms: _162  and  _165
REMARK   73  A    between atoms: _165  and  _166
REMARK   74  A    between atoms: _172  and  _174
REMARK   75  A    between atoms: _174  and  _175
REMARK   76  A    between atoms: _174  and  _177
REMARK   77  A    between atoms: _177  and  _178
REMARK   78  A    between atoms: _181  and  _183
REMARK   79  A    between atoms: _183  and  _184
REMARK   80  A    between atoms: _183  and  _186
REMARK   81  A    between atoms: _189  and  _191
REMARK   82  A    between atoms: _191  and  _192
REMARK   83  A    between atoms: _191  and  _194
REMARK   84  A    between atoms: _194  and  _195
REMARK   85  A    between atoms: _199  and  _200
REMARK   86  A    between atoms: _205  and  _207
REMARK   87  A    between atoms: _207  and  _208
REMARK   88  A    between atoms: _207  and  _210
REMARK   89  A    between atoms: _210  and  _211
REMARK   90  A    between atoms: _215  and  _216
REMARK   91  A    between atoms: _221  and  _223
REMARK   92  A    between atoms: _223  and  _224
REMARK   93  A    between atoms: _223  and  _226
REMARK   94  A    between atoms: _229  and  _231
REMARK   95  A    between atoms: _231  and  _232
REMARK   96  A    between atoms: _231  and  _234
REMARK   97  A    between atoms: _234  and  _235
REMARK   98  A    between atoms: _240  and  _242
REMARK   99  A    between atoms: _242  and  _243
REMARK  100  A    between atoms: _242  and  _245
REMARK  101  A    between atoms: _245  and  _246
REMARK  102  A    between atoms: _249  and  _251
REMARK  103  A    between atoms: _251  and  _252
REMARK  104  A    between atoms: _251  and  _254
REMARK  105  A    between atoms: _254  and  _255
REMARK  106  A    between atoms: _258  and  _260
REMARK  107  A    between atoms: _260  and  _261
REMARK  108  A    between atoms: _263  and  _265
REMARK  109  A    between atoms: _265  and  _266
REMARK  110  A    between atoms: _265  and  _268
REMARK  111  A    between atoms: _268  and  _269
REMARK  112  A    between atoms: _269  and  _270
REMARK  113  A    between atoms: _270  and  _271
REMARK  114  A    between atoms: _280  and  _282
REMARK  115  A    between atoms: _282  and  _283
REMARK  116  A    between atoms: _282  and  _285
REMARK  117  A    between atoms: _285  and  _286
REMARK  118  A    between atoms: _286  and  _287
REMARK  119  A    between atoms: _287  and  _288
REMARK  120  A    between atoms: _297  and  _299
REMARK  121  A    between atoms: _299  and  _300
REMARK  122  A    between atoms: _299  and  _302
REMARK  123  A    between atoms: _302  and  _303
REMARK  124  A    between atoms: _306  and  _308
REMARK  125  A    between atoms: _308  and  _309
REMARK  126  A    between atoms: _308  and  _311
REMARK  127  A    between atoms: _311  and  _312
REMARK  128  A    between atoms: _315  and  _317
REMARK  129  A    between atoms: _317  and  _318
REMARK  130  A    between atoms: _317  and  _320
REMARK  131  A    between atoms: _320  and  _321
REMARK  132  A    between atoms: _324  and  _326
REMARK  133  A    between atoms: _326  and  _327
REMARK  134  A    between atoms: _326  and  _329
REMARK  135  A    between atoms: _329  and  _330
REMARK  136  A    between atoms: _333  and  _335
REMARK  137  A    between atoms: _335  and  _336
REMARK  138  A    between atoms: _338  and  _340
REMARK  139  A    between atoms: _340  and  _341
REMARK  140  A    between atoms: _344  and  _346
REMARK  141  A    between atoms: _346  and  _347
REMARK  142  A    between atoms: _346  and  _349
REMARK  143  A    between atoms: _349  and  _350
REMARK  144  A    between atoms: _353  and  _355
REMARK  145  A    between atoms: _355  and  _356
REMARK  146  A    between atoms: _355  and  _358
REMARK  147  A    between atoms: _358  and  _359
REMARK  148  A    between atoms: _362  and  _364
REMARK  149  A    between atoms: _364  and  _365
REMARK  150  A    between atoms: _364  and  _367
REMARK  151  A    between atoms: _367  and  _368
REMARK  152  A    between atoms: _371  and  _373
REMARK  153  A    between atoms: _373  and  _374
REMARK  154  A    between atoms: _373  and  _376
REMARK  155  A    between atoms: _379  and  _381
REMARK  156  A    between atoms: _381  and  _382
REMARK  157  A    between atoms: _381  and  _384
REMARK  158  A    between atoms: _384  and  _385
REMARK  159  A    between atoms: _388  and  _390
REMARK  160  A    between atoms: _390  and  _391
REMARK  161  A    between atoms: _390  and  _393
REMARK  162  A    between atoms: _393  and  _394
REMARK  163  A    between atoms: _394  and  _395
REMARK  164  A    between atoms: _395  and  _396
REMARK  165  A    between atoms: _396  and  _397
REMARK  166  A    between atoms: _401  and  _403
REMARK  167  A    between atoms: _403  and  _404
REMARK  168  A    between atoms: _403  and  _406
REMARK  169  A    between atoms: _406  and  _407
REMARK  170  A    between atoms: _407  and  _408
REMARK  171  A    between atoms: _410  and  _412
REMARK  172  A    between atoms: _412  and  _413
REMARK  173  A    between atoms: _412  and  _415
REMARK  174  A    between atoms: _415  and  _416
REMARK  175  A    between atoms: _419  and  _421
REMARK  176  A    between atoms: _421  and  _422
REMARK  177  A    between atoms: _424  and  _426
REMARK  178  A    between atoms: _426  and  _427
REMARK  179  A    between atoms: _429  and  _431
REMARK  180  A    between atoms: _431  and  _432
REMARK  181  A    between atoms: _431  and  _434
REMARK  182  A    between atoms: _434  and  _435
REMARK  183  A    between atoms: _438  and  _440
REMARK  184  A    between atoms: _440  and  _441
REMARK  185  A    between atoms: _443  and  _445
REMARK  186  A    between atoms: _445  and  _446
REMARK  187  A    between atoms: _448  and  _450
REMARK  188  A    between atoms: _450  and  _451
REMARK  189  A    between atoms: _450  and  _453
REMARK  190  A    between atoms: _453  and  _454
REMARK  191  A    between atoms: _460  and  _462
REMARK  192  A    between atoms: _462  and  _463
REMARK  193  A    between atoms: _462  and  _465
REMARK  194  A    between atoms: _465  and  _466
REMARK  195  A    between atoms: _469  and  _471
REMARK  196  A    between atoms: _471  and  _472
REMARK  197  A    between atoms: _471  and  _474
REMARK  198  A    between atoms: _477  and  _479
REMARK  199  A    between atoms: _479  and  _480
REMARK  200  A    between atoms: _479  and  _482
REMARK  201  A    between atoms: _482  and  _483
REMARK  202  A    between atoms: _487  and  _488
REMARK  203  A    between atoms: _493  and  _495
REMARK  204  A    between atoms: _495  and  _496
REMARK  205  A    between atoms: _495  and  _498
REMARK  206  A    between atoms: _498  and  _499
REMARK  207  A    between atoms: _503  and  _504
REMARK  208  A    between atoms: _509  and  _511
REMARK  209  A    between atoms: _511  and  _512
REMARK  210  A    between atoms: _511  and  _514
REMARK  211  A    between atoms: _517  and  _519
REMARK  212  A    between atoms: _519  and  _520
REMARK  213  A    between atoms: _519  and  _522
REMARK  214  A    between atoms: _522  and  _523
REMARK  215  A    between atoms: _528  and  _530
REMARK  216  A    between atoms: _530  and  _531
REMARK  217  A    between atoms: _530  and  _533
REMARK  218  A    between atoms: _533  and  _534
REMARK  219  A    between atoms: _537  and  _539
REMARK  220  A    between atoms: _539  and  _540
REMARK  221  A    between atoms: _539  and  _542
REMARK  222  A    between atoms: _542  and  _543
REMARK  223  A    between atoms: _546  and  _548
REMARK  224  A    between atoms: _548  and  _549
REMARK  225  A    between atoms: _551  and  _553
REMARK  226  A    between atoms: _553  and  _554
REMARK  227  A    between atoms: _553  and  _556
REMARK  228  A    between atoms: _556  and  _557
REMARK  229  A    between atoms: _557  and  _558
REMARK  230  A    between atoms: _558  and  _559
REMARK  231  A    between atoms: _568  and  _570
REMARK  232  A    between atoms: _570  and  _571
REMARK  233  A    between atoms: _570  and  _573
REMARK  234  A    between atoms: _573  and  _574
REMARK                            x       y       z     vdW  Elec       q    Type
REMARK                         _______ _______ _______ _____ _____    ______ ____
ROOT
ATOM      1  O   HOH     1      22.977 -28.062 -20.497  0.00  0.00    +0.000 OA
ENDROOT
TORSDOF 0
REMARK  Name = ../refined-set-2016/2o4s/2o4s_pocket.pdb
REMARK  234 active torsions:
REMARK  status: ('A' for Active; 'I' for Inactive)
REMARK    1  A    between atoms: _1  and  _3
REMARK    2  A    between atoms: _3  and  _4
REMARK    3  A    between atoms: _3  and  _6
REMARK    4  A    between atoms: _6  and  _7
REMARK    5  A    between atoms: _7  and  _8
REMARK    6  A    between atoms: _8  and  _9
REMARK    7  A    between atoms: _18  and  _20
REMARK    8  A    between atoms: _20  and  _21
REMARK    9  A    between atoms: _20  and  _23
REMARK   10  A    between atoms: _23  and  _24
REMARK   11  A    between atoms: _27  and  _29
REMARK   12  A    between atoms: _29  and  _30
REMARK   13  A    between atoms: _29  and  _32
REMARK   14  A    between atoms: _32  and  _33
REMARK   15  A    between atoms: _36  and  _38
REMARK   16  A    between atoms: _38  and  _39
REMARK   17  A    between atoms: _38  and  _41
REMARK   18  A    between atoms: _41  and  _42
REMARK   19  A    between atoms: _45  and  _47
REMARK   20  A    between atoms: _47  and  _48
REMARK   21  A    between atoms: _47  and  _50
REMARK   22  A    between atoms: _50  and  _51
REMARK   23  A    between atoms: _54  and  _56
REMARK   24  A    between atoms: _56  and  _57
REMARK   25  A    between atoms: _59  and  _61
REMARK   26  A    between atoms: _61  and  _62
REMARK   27  A    between atoms: _65  and  _67
REMARK   28  A    between atoms: _67  and  _68
REMARK   29  A    between atoms: _67  and  _70
REMARK   30  A    between atoms: _70  and  _71
REMARK   31  A    between atoms: _74  and  _76
REMARK   32  A    between atoms: _76  and  _77
REMARK   33  A    between atoms: _76  and  _79
REMARK   34  A    between atoms: _79  and  _80
REMARK   35  A    between atoms: _83  and  _85
REMARK   36  A    between atoms: _85  and  _86
REMARK   37  A    between atoms: _85  and  _88
REMARK   38  A    between atoms: _88  and  _89
REMARK   39  A    between atoms: _92  and  _94
REMARK   40  A    between atoms: _94  and  _95
REMARK   41  A    between atoms: _94  and  _97
REMARK   42  A    between atoms: _100  and  _102
REMARK   43  A    between atoms: _102  and  _103
REMARK   44  A    between atoms: _102  and  _105
REMARK   45  A    between atoms: _105  and  _106
REMARK   46  A    between atoms: _106  and  _107
REMARK   47  A    between atoms: _107  and  _108
REMARK   48  A    between atoms: _108  and  _109
REMARK   49  A    between atoms: _113  and  _115
REMARK   50  A    between atoms: _115  and  _116
REMARK   51  A    between atoms: _115  and  _118
REMARK   52  A    between atoms: _118  and  _119
REMARK   53  A    between atoms: _119  and  _120
REMARK   54  A    between atoms: _122  and  _124
REMARK   55  A    between atoms: _124  and  _125
REMARK   56  A    between atoms: _124  and  _127
REMARK   57  A    between atoms: _127  and  _128
REMARK   58  A    between atoms: _131  and  _133
REMARK   59  A    between atoms: _133  and  _134
REMARK   60  A    between atoms: _136  and  _138
REMARK   61  A    between atoms: _138  and  _139
REMARK   62  A    between atoms: _141  and  _143
REMARK   63  A    between atoms: _143  and  _144
REMARK   64  A    between atoms: _143  and  _146
REMARK   65  A    between atoms: _146  and  _147
REMARK   66  A    between atoms: _150  and  _152
REMARK   67  A    between atoms: _152  and  _153
REMARK   68  A    between atoms: _155  and  _157
REMARK   69  A    between atoms: _157  and  _158
REMARK   70  A    between atoms: _160  and  _162
REMARK   71  A    between atoms: _162  and  _163
REMARK   72  A    between atoms: _162  and  _165
REMARK   73  A    between atoms: _165  and  _166
REMARK   74  A    between atoms: _172  and  _174
REMARK   75  A    between atoms: _174  and  _175
REMARK   76  A    between atoms: _174  and  _177
REMARK   77  A    between atoms: _177  and  _178
REMARK   78  A    between atoms: _181  and  _183
REMARK   79  A    between atoms: _183  and  _184
REMARK   80  A    between atoms: _183  and  _186
REMARK   81  A    between atoms: _189  and  _191
REMARK   82  A    between atoms: _191  and  _192
REMARK   83  A    between atoms: _191  and  _194
REMARK   84  A    between atoms: _194  and  _195
REMARK   85  A    between atoms: _199  and  _200
REMARK   86  A    between atoms: _205  and  _207
REMARK   87  A    between atoms: _207  and  _208
REMARK   88  A    between atoms: _207  and  _210
REMARK   89  A    between atoms: _210  and  _211
REMARK   90  A    between atoms: _215  and  _216
REMARK   91  A    between atoms: _221  and  _223
REMARK   92  A    between atoms: _223  and  _224
REMARK   93  A    between atoms: _223  and  _226
REMARK   94  A    between atoms: _229  and  _231
REMARK   95  A    between atoms: _231  and  _232
REMARK   96  A    between atoms: _231  and  _234
REMARK   97  A    between atoms: _234  and  _235
REMARK   98  A    between atoms: _240  and  _242
REMARK   99  A    between atoms: _242  and  _243
REMARK  100  A    between atoms: _242  and  _245
REMARK  101  A    between atoms: _245  and  _246
REMARK  102  A    between atoms: _249  and  _251
REMARK  103  A    between atoms: _251  and  _252
REMARK  104  A    between atoms: _251  and  _254
REMARK  105  A    between atoms: _254  and  _255
REMARK  106  A    between atoms: _258  and  _260
REMARK  107  A    between atoms: _260  and  _261
REMARK  108  A    between atoms: _263  and  _265
REMARK  109  A    between atoms: _265  and  _266
REMARK  110  A    between atoms: _265  and  _268
REMARK  111  A    between atoms: _268  and  _269
REMARK  112  A    between atoms: _269  and  _270
REMARK  113  A    between atoms: _270  and  _271
REMARK  114  A    between atoms: _280  and  _282
REMARK  115  A    between atoms: _282  and  _283
REMARK  116  A    between atoms: _282  and  _285
REMARK  117  A    between atoms: _285  and  _286
REMARK  118  A    between atoms: _286  and  _287
REMARK  119  A    between atoms: _287  and  _288
REMARK  120  A    between atoms: _297  and  _299
REMARK  121  A    between atoms: _299  and  _300
REMARK  122  A    between atoms: _299  and  _302
REMARK  123  A    between atoms: _302  and  _303
REMARK  124  A    between atoms: _306  and  _308
REMARK  125  A    between atoms: _308  and  _309
REMARK  126  A    between atoms: _308  and  _311
REMARK  127  A    between atoms: _311  and  _312
REMARK  128  A    between atoms: _315  and  _317
REMARK  129  A    between atoms: _317  and  _318
REMARK  130  A    between atoms: _317  and  _320
REMARK  131  A    between atoms: _320  and  _321
REMARK  132  A    between atoms: _324  and  _326
REMARK  133  A    between atoms: _326  and  _327
REMARK  134  A    between atoms: _326  and  _329
REMARK  135  A    between atoms: _329  and  _330
REMARK  136  A    between atoms: _333  and  _335
REMARK  137  A    between atoms: _335  and  _336
REMARK  138  A    between atoms: _338  and  _340
REMARK  139  A    between atoms: _340  and  _341
REMARK  140  A    between atoms: _344  and  _346
REMARK  141  A    between atoms: _346  and  _347
REMARK  142  A    between atoms: _346  and  _349
REMARK  143  A    between atoms: _349  and  _350
REMARK  144  A    between atoms: _353  and  _355
REMARK  145  A    between atoms: _355  and  _356
REMARK  146  A    between atoms: _355  and  _358
REMARK  147  A    between atoms: _358  and  _359
REMARK  148  A    between atoms: _362  and  _364
REMARK  149  A    between atoms: _364  and  _365
REMARK  150  A    between atoms: _364  and  _367
REMARK  151  A    between atoms: _367  and  _368
REMARK  152  A    between atoms: _371  and  _373
REMARK  153  A    between atoms: _373  and  _374
REMARK  154  A    between atoms: _373  and  _376
REMARK  155  A    between atoms: _379  and  _381
REMARK  156  A    between atoms: _381  and  _382
REMARK  157  A    between atoms: _381  and  _384
REMARK  158  A    between atoms: _384  and  _385
REMARK  159  A    between atoms: _388  and  _390
REMARK  160  A    between atoms: _390  and  _391
REMARK  161  A    between atoms: _390  and  _393
REMARK  162  A    between atoms: _393  and  _394
REMARK  163  A    between atoms: _394  and  _395
REMARK  164  A    between atoms: _395  and  _396
REMARK  165  A    between atoms: _396  and  _397
REMARK  166  A    between atoms: _401  and  _403
REMARK  167  A    between atoms: _403  and  _404
REMARK  168  A    between atoms: _403  and  _406
REMARK  169  A    between atoms: _406  and  _407
REMARK  170  A    between atoms: _407  and  _408
REMARK  171  A    between atoms: _410  and  _412
REMARK  172  A    between atoms: _412  and  _413
REMARK  173  A    between atoms: _412  and  _415
REMARK  174  A    between atoms: _415  and  _416
REMARK  175  A    between atoms: _419  and  _421
REMARK  176  A    between atoms: _421  and  _422
REMARK  177  A    between atoms: _424  and  _426
REMARK  178  A    between atoms: _426  and  _427
REMARK  179  A    between atoms: _429  and  _431
REMARK  180  A    between atoms: _431  and  _432
REMARK  181  A    between atoms: _431  and  _434
REMARK  182  A    between atoms: _434  and  _435
REMARK  183  A    between atoms: _438  and  _440
REMARK  184  A    between atoms: _440  and  _441
REMARK  185  A    between atoms: _443  and  _445
REMARK  186  A    between atoms: _445  and  _446
REMARK  187  A    between atoms: _448  and  _450
REMARK  188  A    between atoms: _450  and  _451
REMARK  189  A    between atoms: _450  and  _453
REMARK  190  A    between atoms: _453  and  _454
REMARK  191  A    between atoms: _460  and  _462
REMARK  192  A    between atoms: _462  and  _463
REMARK  193  A    between atoms: _462  and  _465
REMARK  194  A    between atoms: _465  and  _466
REMARK  195  A    between atoms: _469  and  _471
REMARK  196  A    between atoms: _471  and  _472
REMARK  197  A    between atoms: _471  and  _474
REMARK  198  A    between atoms: _477  and  _479
REMARK  199  A    between atoms: _479  and  _480
REMARK  200  A    between atoms: _479  and  _482
REMARK  201  A    between atoms: _482  and  _483
REMARK  202  A    between atoms: _487  and  _488
REMARK  203  A    between atoms: _493  and  _495
REMARK  204  A    between atoms: _495  and  _496
REMARK  205  A    between atoms: _495  and  _498
REMARK  206  A    between atoms: _498  and  _499
REMARK  207  A    between atoms: _503  and  _504
REMARK  208  A    between atoms: _509  and  _511
REMARK  209  A    between atoms: _511  and  _512
REMARK  210  A    between atoms: _511  and  _514
REMARK  211  A    between atoms: _517  and  _519
REMARK  212  A    between atoms: _519  and  _520
REMARK  213  A    between atoms: _519  and  _522
REMARK  214  A    between atoms: _522  and  _523
REMARK  215  A    between atoms: _528  and  _530
REMARK  216  A    between atoms: _530  and  _531
REMARK  217  A    between atoms: _530  and  _533
REMARK  218  A    between atoms: _533  and  _534
REMARK  219  A    between atoms: _537  and  _539
REMARK  220  A    between atoms: _539  and  _540
REMARK  221  A    between atoms: _539  and  _542
REMARK  222  A    between atoms: _542  and  _543
REMARK  223  A    between atoms: _546  and  _548
REMARK  224  A    between atoms: _548  and  _549
REMARK  225  A    between atoms: _551  and  _553
REMARK  226  A    between atoms: _553  and  _554
REMARK  227  A    between atoms: _553  and  _556
REMARK  228  A    between atoms: _556  and  _557
REMARK  229  A    between atoms: _557  and  _558
REMARK  230  A    between atoms: _558  and  _559
REMARK  231  A    between atoms: _568  and  _570
REMARK  232  A    between atoms: _570  and  _571
REMARK  233  A    between atoms: _570  and  _573
REMARK  234  A    between atoms: _573  and  _574
REMARK                            x       y       z     vdW  Elec       q    Type
REMARK                         _______ _______ _______ _____ _____    ______ ____
ROOT
ATOM      1  O   HOH     1      22.922 -26.561 -25.483  0.00  0.00    +0.000 OA
ENDROOT
TORSDOF 0
REMARK  Name = ../refined-set-2016/2o4s/2o4s_pocket.pdb
REMARK  234 active torsions:
REMARK  status: ('A' for Active; 'I' for Inactive)
REMARK    1  A    between atoms: _1  and  _3
REMARK    2  A    between atoms: _3  and  _4
REMARK    3  A    between atoms: _3  and  _6
REMARK    4  A    between atoms: _6  and  _7
REMARK    5  A    between atoms: _7  and  _8
REMARK    6  A    between atoms: _8  and  _9
REMARK    7  A    between atoms: _18  and  _20
REMARK    8  A    between atoms: _20  and  _21
REMARK    9  A    between atoms: _20  and  _23
REMARK   10  A    between atoms: _23  and  _24
REMARK   11  A    between atoms: _27  and  _29
REMARK   12  A    between atoms: _29  and  _30
REMARK   13  A    between atoms: _29  and  _32
REMARK   14  A    between atoms: _32  and  _33
REMARK   15  A    between atoms: _36  and  _38
REMARK   16  A    between atoms: _38  and  _39
REMARK   17  A    between atoms: _38  and  _41
REMARK   18  A    between atoms: _41  and  _42
REMARK   19  A    between atoms: _45  and  _47
REMARK   20  A    between atoms: _47  and  _48
REMARK   21  A    between atoms: _47  and  _50
REMARK   22  A    between atoms: _50  and  _51
REMARK   23  A    between atoms: _54  and  _56
REMARK   24  A    between atoms: _56  and  _57
REMARK   25  A    between atoms: _59  and  _61
REMARK   26  A    between atoms: _61  and  _62
REMARK   27  A    between atoms: _65  and  _67
REMARK   28  A    between atoms: _67  and  _68
REMARK   29  A    between atoms: _67  and  _70
REMARK   30  A    between atoms: _70  and  _71
REMARK   31  A    between atoms: _74  and  _76
REMARK   32  A    between atoms: _76  and  _77
REMARK   33  A    between atoms: _76  and  _79
REMARK   34  A    between atoms: _79  and  _80
REMARK   35  A    between atoms: _83  and  _85
REMARK   36  A    between atoms: _85  and  _86
REMARK   37  A    between atoms: _85  and  _88
REMARK   38  A    between atoms: _88  and  _89
REMARK   39  A    between atoms: _92  and  _94
REMARK   40  A    between atoms: _94  and  _95
REMARK   41  A    between atoms: _94  and  _97
REMARK   42  A    between atoms: _100  and  _102
REMARK   43  A    between atoms: _102  and  _103
REMARK   44  A    between atoms: _102  and  _105
REMARK   45  A    between atoms: _105  and  _106
REMARK   46  A    between atoms: _106  and  _107
REMARK   47  A    between atoms: _107  and  _108
REMARK   48  A    between atoms: _108  and  _109
REMARK   49  A    between atoms: _113  and  _115
REMARK   50  A    between atoms: _115  and  _116
REMARK   51  A    between atoms: _115  and  _118
REMARK   52  A    between atoms: _118  and  _119
REMARK   53  A    between atoms: _119  and  _120
REMARK   54  A    between atoms: _122  and  _124
REMARK   55  A    between atoms: _124  and  _125
REMARK   56  A    between atoms: _124  and  _127
REMARK   57  A    between atoms: _127  and  _128
REMARK   58  A    between atoms: _131  and  _133
REMARK   59  A    between atoms: _133  and  _134
REMARK   60  A    between atoms: _136  and  _138
REMARK   61  A    between atoms: _138  and  _139
REMARK   62  A    between atoms: _141  and  _143
REMARK   63  A    between atoms: _143  and  _144
REMARK   64  A    between atoms: _143  and  _146
REMARK   65  A    between atoms: _146  and  _147
REMARK   66  A    between atoms: _150  and  _152
REMARK   67  A    between atoms: _152  and  _153
REMARK   68  A    between atoms: _155  and  _157
REMARK   69  A    between atoms: _157  and  _158
REMARK   70  A    between atoms: _160  and  _162
REMARK   71  A    between atoms: _162  and  _163
REMARK   72  A    between atoms: _162  and  _165
REMARK   73  A    between atoms: _165  and  _166
REMARK   74  A    between atoms: _172  and  _174
REMARK   75  A    between atoms: _174  and  _175
REMARK   76  A    between atoms: _174  and  _177
REMARK   77  A    between atoms: _177  and  _178
REMARK   78  A    between atoms: _181  and  _183
REMARK   79  A    between atoms: _183  and  _184
REMARK   80  A    between atoms: _183  and  _186
REMARK   81  A    between atoms: _189  and  _191
REMARK   82  A    between atoms: _191  and  _192
REMARK   83  A    between atoms: _191  and  _194
REMARK   84  A    between atoms: _194  and  _195
REMARK   85  A    between atoms: _199  and  _200
REMARK   86  A    between atoms: _205  and  _207
REMARK   87  A    between atoms: _207  and  _208
REMARK   88  A    between atoms: _207  and  _210
REMARK   89  A    between atoms: _210  and  _211
REMARK   90  A    between atoms: _215  and  _216
REMARK   91  A    between atoms: _221  and  _223
REMARK   92  A    between atoms: _223  and  _224
REMARK   93  A    between atoms: _223  and  _226
REMARK   94  A    between atoms: _229  and  _231
REMARK   95  A    between atoms: _231  and  _232
REMARK   96  A    between atoms: _231  and  _234
REMARK   97  A    between atoms: _234  and  _235
REMARK   98  A    between atoms: _240  and  _242
REMARK   99  A    between atoms: _242  and  _243
REMARK  100  A    between atoms: _242  and  _245
REMARK  101  A    between atoms: _245  and  _246
REMARK  102  A    between atoms: _249  and  _251
REMARK  103  A    between atoms: _251  and  _252
REMARK  104  A    between atoms: _251  and  _254
REMARK  105  A    between atoms: _254  and  _255
REMARK  106  A    between atoms: _258  and  _260
REMARK  107  A    between atoms: _260  and  _261
REMARK  108  A    between atoms: _263  and  _265
REMARK  109  A    between atoms: _265  and  _266
REMARK  110  A    between atoms: _265  and  _268
REMARK  111  A    between atoms: _268  and  _269
REMARK  112  A    between atoms: _269  and  _270
REMARK  113  A    between atoms: _270  and  _271
REMARK  114  A    between atoms: _280  and  _282
REMARK  115  A    between atoms: _282  and  _283
REMARK  116  A    between atoms: _282  and  _285
REMARK  117  A    between atoms: _285  and  _286
REMARK  118  A    between atoms: _286  and  _287
REMARK  119  A    between atoms: _287  and  _288
REMARK  120  A    between atoms: _297  and  _299
REMARK  121  A    between atoms: _299  and  _300
REMARK  122  A    between atoms: _299  and  _302
REMARK  123  A    between atoms: _302  and  _303
REMARK  124  A    between atoms: _306  and  _308
REMARK  125  A    between atoms: _308  and  _309
REMARK  126  A    between atoms: _308  and  _311
REMARK  127  A    between atoms: _311  and  _312
REMARK  128  A    between atoms: _315  and  _317
REMARK  129  A    between atoms: _317  and  _318
REMARK  130  A    between atoms: _317  and  _320
REMARK  131  A    between atoms: _320  and  _321
REMARK  132  A    between atoms: _324  and  _326
REMARK  133  A    between atoms: _326  and  _327
REMARK  134  A    between atoms: _326  and  _329
REMARK  135  A    between atoms: _329  and  _330
REMARK  136  A    between atoms: _333  and  _335
REMARK  137  A    between atoms: _335  and  _336
REMARK  138  A    between atoms: _338  and  _340
REMARK  139  A    between atoms: _340  and  _341
REMARK  140  A    between atoms: _344  and  _346
REMARK  141  A    between atoms: _346  and  _347
REMARK  142  A    between atoms: _346  and  _349
REMARK  143  A    between atoms: _349  and  _350
REMARK  144  A    between atoms: _353  and  _355
REMARK  145  A    between atoms: _355  and  _356
REMARK  146  A    between atoms: _355  and  _358
REMARK  147  A    between atoms: _358  and  _359
REMARK  148  A    between atoms: _362  and  _364
REMARK  149  A    between atoms: _364  and  _365
REMARK  150  A    between atoms: _364  and  _367
REMARK  151  A    between atoms: _367  and  _368
REMARK  152  A    between atoms: _371  and  _373
REMARK  153  A    between atoms: _373  and  _374
REMARK  154  A    between atoms: _373  and  _376
REMARK  155  A    between atoms: _379  and  _381
REMARK  156  A    between atoms: _381  and  _382
REMARK  157  A    between atoms: _381  and  _384
REMARK  158  A    between atoms: _384  and  _385
REMARK  159  A    between atoms: _388  and  _390
REMARK  160  A    between atoms: _390  and  _391
REMARK  161  A    between atoms: _390  and  _393
REMARK  162  A    between atoms: _393  and  _394
REMARK  163  A    between atoms: _394  and  _395
REMARK  164  A    between atoms: _395  and  _396
REMARK  165  A    between atoms: _396  and  _397
REMARK  166  A    between atoms: _401  and  _403
REMARK  167  A    between atoms: _403  and  _404
REMARK  168  A    between atoms: _403  and  _406
REMARK  169  A    between atoms: _406  and  _407
REMARK  170  A    between atoms: _407  and  _408
REMARK  171  A    between atoms: _410  and  _412
REMARK  172  A    between atoms: _412  and  _413
REMARK  173  A    between atoms: _412  and  _415
REMARK  174  A    between atoms: _415  and  _416
REMARK  175  A    between atoms: _419  and  _421
REMARK  176  A    between atoms: _421  and  _422
REMARK  177  A    between atoms: _424  and  _426
REMARK  178  A    between atoms: _426  and  _427
REMARK  179  A    between atoms: _429  and  _431
REMARK  180  A    between atoms: _431  and  _432
REMARK  181  A    between atoms: _431  and  _434
REMARK  182  A    between atoms: _434  and  _435
REMARK  183  A    between atoms: _438  and  _440
REMARK  184  A    between atoms: _440  and  _441
REMARK  185  A    between atoms: _443  and  _445
REMARK  186  A    between atoms: _445  and  _446
REMARK  187  A    between atoms: _448  and  _450
REMARK  188  A    between atoms: _450  and  _451
REMARK  189  A    between atoms: _450  and  _453
REMARK  190  A    between atoms: _453  and  _454
REMARK  191  A    between atoms: _460  and  _462
REMARK  192  A    between atoms: _462  and  _463
REMARK  193  A    between atoms: _462  and  _465
REMARK  194  A    between atoms: _465  and  _466
REMARK  195  A    between atoms: _469  and  _471
REMARK  196  A    between atoms: _471  and  _472
REMARK  197  A    between atoms: _471  and  _474
REMARK  198  A    between atoms: _477  and  _479
REMARK  199  A    between atoms: _479  and  _480
REMARK  200  A    between atoms: _479  and  _482
REMARK  201  A    between atoms: _482  and  _483
REMARK  202  A    between atoms: _487  and  _488
REMARK  203  A    between atoms: _493  and  _495
REMARK  204  A    between atoms: _495  and  _496
REMARK  205  A    between atoms: _495  and  _498
REMARK  206  A    between atoms: _498  and  _499
REMARK  207  A    between atoms: _503  and  _504
REMARK  208  A    between atoms: _509  and  _511
REMARK  209  A    between atoms: _511  and  _512
REMARK  210  A    between atoms: _511  and  _514
REMARK  211  A    between atoms: _517  and  _519
REMARK  212  A    between atoms: _519  and  _520
REMARK  213  A    between atoms: _519  and  _522
REMARK  214  A    between atoms: _522  and  _523
REMARK  215  A    between atoms: _528  and  _530
REMARK  216  A    between atoms: _530  and  _531
REMARK  217  A    between atoms: _530  and  _533
REMARK  218  A    between atoms: _533  and  _534
REMARK  219  A    between atoms: _537  and  _539
REMARK  220  A    between atoms: _539  and  _540
REMARK  221  A    between atoms: _539  and  _542
REMARK  222  A    between atoms: _542  and  _543
REMARK  223  A    between atoms: _546  and  _548
REMARK  224  A    between atoms: _548  and  _549
REMARK  225  A    between atoms: _551  and  _553
REMARK  226  A    between atoms: _553  and  _554
REMARK  227  A    between atoms: _553  and  _556
REMARK  228  A    between atoms: _556  and  _557
REMARK  229  A    between atoms: _557  and  _558
REMARK  230  A    between atoms: _558  and  _559
REMARK  231  A    between atoms: _568  and  _570
REMARK  232  A    between atoms: _570  and  _571
REMARK  233  A    between atoms: _570  and  _573
REMARK  234  A    between atoms: _573  and  _574
REMARK                            x       y       z     vdW  Elec       q    Type
REMARK                         _______ _______ _______ _____ _____    ______ ____
ROOT
ATOM      1  O   HOH     1      25.417 -24.860 -18.421  0.00  0.00    +0.000 OA
ENDROOT
TORSDOF 0
REMARK  Name = ../refined-set-2016/2o4s/2o4s_pocket.pdb
REMARK  234 active torsions:
REMARK  status: ('A' for Active; 'I' for Inactive)
REMARK    1  A    between atoms: _1  and  _3
REMARK    2  A    between atoms: _3  and  _4
REMARK    3  A    between atoms: _3  and  _6
REMARK    4  A    between atoms: _6  and  _7
REMARK    5  A    between atoms: _7  and  _8
REMARK    6  A    between atoms: _8  and  _9
REMARK    7  A    between atoms: _18  and  _20
REMARK    8  A    between atoms: _20  and  _21
REMARK    9  A    between atoms: _20  and  _23
REMARK   10  A    between atoms: _23  and  _24
REMARK   11  A    between atoms: _27  and  _29
REMARK   12  A    between atoms: _29  and  _30
REMARK   13  A    between atoms: _29  and  _32
REMARK   14  A    between atoms: _32  and  _33
REMARK   15  A    between atoms: _36  and  _38
REMARK   16  A    between atoms: _38  and  _39
REMARK   17  A    between atoms: _38  and  _41
REMARK   18  A    between atoms: _41  and  _42
REMARK   19  A    between atoms: _45  and  _47
REMARK   20  A    between atoms: _47  and  _48
REMARK   21  A    between atoms: _47  and  _50
REMARK   22  A    between atoms: _50  and  _51
REMARK   23  A    between atoms: _54  and  _56
REMARK   24  A    between atoms: _56  and  _57
REMARK   25  A    between atoms: _59  and  _61
REMARK   26  A    between atoms: _61  and  _62
REMARK   27  A    between atoms: _65  and  _67
REMARK   28  A    between atoms: _67  and  _68
REMARK   29  A    between atoms: _67  and  _70
REMARK   30  A    between atoms: _70  and  _71
REMARK   31  A    between atoms: _74  and  _76
REMARK   32  A    between atoms: _76  and  _77
REMARK   33  A    between atoms: _76  and  _79
REMARK   34  A    between atoms: _79  and  _80
REMARK   35  A    between atoms: _83  and  _85
REMARK   36  A    between atoms: _85  and  _86
REMARK   37  A    between atoms: _85  and  _88
REMARK   38  A    between atoms: _88  and  _89
REMARK   39  A    between atoms: _92  and  _94
REMARK   40  A    between atoms: _94  and  _95
REMARK   41  A    between atoms: _94  and  _97
REMARK   42  A    between atoms: _100  and  _102
REMARK   43  A    between atoms: _102  and  _103
REMARK   44  A    between atoms: _102  and  _105
REMARK   45  A    between atoms: _105  and  _106
REMARK   46  A    between atoms: _106  and  _107
REMARK   47  A    between atoms: _107  and  _108
REMARK   48  A    between atoms: _108  and  _109
REMARK   49  A    between atoms: _113  and  _115
REMARK   50  A    between atoms: _115  and  _116
REMARK   51  A    between atoms: _115  and  _118
REMARK   52  A    between atoms: _118  and  _119
REMARK   53  A    between atoms: _119  and  _120
REMARK   54  A    between atoms: _122  and  _124
REMARK   55  A    between atoms: _124  and  _125
REMARK   56  A    between atoms: _124  and  _127
REMARK   57  A    between atoms: _127  and  _128
REMARK   58  A    between atoms: _131  and  _133
REMARK   59  A    between atoms: _133  and  _134
REMARK   60  A    between atoms: _136  and  _138
REMARK   61  A    between atoms: _138  and  _139
REMARK   62  A    between atoms: _141  and  _143
REMARK   63  A    between atoms: _143  and  _144
REMARK   64  A    between atoms: _143  and  _146
REMARK   65  A    between atoms: _146  and  _147
REMARK   66  A    between atoms: _150  and  _152
REMARK   67  A    between atoms: _152  and  _153
REMARK   68  A    between atoms: _155  and  _157
REMARK   69  A    between atoms: _157  and  _158
REMARK   70  A    between atoms: _160  and  _162
REMARK   71  A    between atoms: _162  and  _163
REMARK   72  A    between atoms: _162  and  _165
REMARK   73  A    between atoms: _165  and  _166
REMARK   74  A    between atoms: _172  and  _174
REMARK   75  A    between atoms: _174  and  _175
REMARK   76  A    between atoms: _174  and  _177
REMARK   77  A    between atoms: _177  and  _178
REMARK   78  A    between atoms: _181  and  _183
REMARK   79  A    between atoms: _183  and  _184
REMARK   80  A    between atoms: _183  and  _186
REMARK   81  A    between atoms: _189  and  _191
REMARK   82  A    between atoms: _191  and  _192
REMARK   83  A    between atoms: _191  and  _194
REMARK   84  A    between atoms: _194  and  _195
REMARK   85  A    between atoms: _199  and  _200
REMARK   86  A    between atoms: _205  and  _207
REMARK   87  A    between atoms: _207  and  _208
REMARK   88  A    between atoms: _207  and  _210
REMARK   89  A    between atoms: _210  and  _211
REMARK   90  A    between atoms: _215  and  _216
REMARK   91  A    between atoms: _221  and  _223
REMARK   92  A    between atoms: _223  and  _224
REMARK   93  A    between atoms: _223  and  _226
REMARK   94  A    between atoms: _229  and  _231
REMARK   95  A    between atoms: _231  and  _232
REMARK   96  A    between atoms: _231  and  _234
REMARK   97  A    between atoms: _234  and  _235
REMARK   98  A    between atoms: _240  and  _242
REMARK   99  A    between atoms: _242  and  _243
REMARK  100  A    between atoms: _242  and  _245
REMARK  101  A    between atoms: _245  and  _246
REMARK  102  A    between atoms: _249  and  _251
REMARK  103  A    between atoms: _251  and  _252
REMARK  104  A    between atoms: _251  and  _254
REMARK  105  A    between atoms: _254  and  _255
REMARK  106  A    between atoms: _258  and  _260
REMARK  107  A    between atoms: _260  and  _261
REMARK  108  A    between atoms: _263  and  _265
REMARK  109  A    between atoms: _265  and  _266
REMARK  110  A    between atoms: _265  and  _268
REMARK  111  A    between atoms: _268  and  _269
REMARK  112  A    between atoms: _269  and  _270
REMARK  113  A    between atoms: _270  and  _271
REMARK  114  A    between atoms: _280  and  _282
REMARK  115  A    between atoms: _282  and  _283
REMARK  116  A    between atoms: _282  and  _285
REMARK  117  A    between atoms: _285  and  _286
REMARK  118  A    between atoms: _286  and  _287
REMARK  119  A    between atoms: _287  and  _288
REMARK  120  A    between atoms: _297  and  _299
REMARK  121  A    between atoms: _299  and  _300
REMARK  122  A    between atoms: _299  and  _302
REMARK  123  A    between atoms: _302  and  _303
REMARK  124  A    between atoms: _306  and  _308
REMARK  125  A    between atoms: _308  and  _309
REMARK  126  A    between atoms: _308  and  _311
REMARK  127  A    between atoms: _311  and  _312
REMARK  128  A    between atoms: _315  and  _317
REMARK  129  A    between atoms: _317  and  _318
REMARK  130  A    between atoms: _317  and  _320
REMARK  131  A    between atoms: _320  and  _321
REMARK  132  A    between atoms: _324  and  _326
REMARK  133  A    between atoms: _326  and  _327
REMARK  134  A    between atoms: _326  and  _329
REMARK  135  A    between atoms: _329  and  _330
REMARK  136  A    between atoms: _333  and  _335
REMARK  137  A    between atoms: _335  and  _336
REMARK  138  A    between atoms: _338  and  _340
REMARK  139  A    between atoms: _340  and  _341
REMARK  140  A    between atoms: _344  and  _346
REMARK  141  A    between atoms: _346  and  _347
REMARK  142  A    between atoms: _346  and  _349
REMARK  143  A    between atoms: _349  and  _350
REMARK  144  A    between atoms: _353  and  _355
REMARK  145  A    between atoms: _355  and  _356
REMARK  146  A    between atoms: _355  and  _358
REMARK  147  A    between atoms: _358  and  _359
REMARK  148  A    between atoms: _362  and  _364
REMARK  149  A    between atoms: _364  and  _365
REMARK  150  A    between atoms: _364  and  _367
REMARK  151  A    between atoms: _367  and  _368
REMARK  152  A    between atoms: _371  and  _373
REMARK  153  A    between atoms: _373  and  _374
REMARK  154  A    between atoms: _373  and  _376
REMARK  155  A    between atoms: _379  and  _381
REMARK  156  A    between atoms: _381  and  _382
REMARK  157  A    between atoms: _381  and  _384
REMARK  158  A    between atoms: _384  and  _385
REMARK  159  A    between atoms: _388  and  _390
REMARK  160  A    between atoms: _390  and  _391
REMARK  161  A    between atoms: _390  and  _393
REMARK  162  A    between atoms: _393  and  _394
REMARK  163  A    between atoms: _394  and  _395
REMARK  164  A    between atoms: _395  and  _396
REMARK  165  A    between atoms: _396  and  _397
REMARK  166  A    between atoms: _401  and  _403
REMARK  167  A    between atoms: _403  and  _404
REMARK  168  A    between atoms: _403  and  _406
REMARK  169  A    between atoms: _406  and  _407
REMARK  170  A    between atoms: _407  and  _408
REMARK  171  A    between atoms: _410  and  _412
REMARK  172  A    between atoms: _412  and  _413
REMARK  173  A    between atoms: _412  and  _415
REMARK  174  A    between atoms: _415  and  _416
REMARK  175  A    between atoms: _419  and  _421
REMARK  176  A    between atoms: _421  and  _422
REMARK  177  A    between atoms: _424  and  _426
REMARK  178  A    between atoms: _426  and  _427
REMARK  179  A    between atoms: _429  and  _431
REMARK  180  A    between atoms: _431  and  _432
REMARK  181  A    between atoms: _431  and  _434
REMARK  182  A    between atoms: _434  and  _435
REMARK  183  A    between atoms: _438  and  _440
REMARK  184  A    between atoms: _440  and  _441
REMARK  185  A    between atoms: _443  and  _445
REMARK  186  A    between atoms: _445  and  _446
REMARK  187  A    between atoms: _448  and  _450
REMARK  188  A    between atoms: _450  and  _451
REMARK  189  A    between atoms: _450  and  _453
REMARK  190  A    between atoms: _453  and  _454
REMARK  191  A    between atoms: _460  and  _462
REMARK  192  A    between atoms: _462  and  _463
REMARK  193  A    between atoms: _462  and  _465
REMARK  194  A    between atoms: _465  and  _466
REMARK  195  A    between atoms: _469  and  _471
REMARK  196  A    between atoms: _471  and  _472
REMARK  197  A    between atoms: _471  and  _474
REMARK  198  A    between atoms: _477  and  _479
REMARK  199  A    between atoms: _479  and  _480
REMARK  200  A    between atoms: _479  and  _482
REMARK  201  A    between atoms: _482  and  _483
REMARK  202  A    between atoms: _487  and  _488
REMARK  203  A    between atoms: _493  and  _495
REMARK  204  A    between atoms: _495  and  _496
REMARK  205  A    between atoms: _495  and  _498
REMARK  206  A    between atoms: _498  and  _499
REMARK  207  A    between atoms: _503  and  _504
REMARK  208  A    between atoms: _509  and  _511
REMARK  209  A    between atoms: _511  and  _512
REMARK  210  A    between atoms: _511  and  _514
REMARK  211  A    between atoms: _517  and  _519
REMARK  212  A    between atoms: _519  and  _520
REMARK  213  A    between atoms: _519  and  _522
REMARK  214  A    between atoms: _522  and  _523
REMARK  215  A    between atoms: _528  and  _530
REMARK  216  A    between atoms: _530  and  _531
REMARK  217  A    between atoms: _530  and  _533
REMARK  218  A    between atoms: _533  and  _534
REMARK  219  A    between atoms: _537  and  _539
REMARK  220  A    between atoms: _539  and  _540
REMARK  221  A    between atoms: _539  and  _542
REMARK  222  A    between atoms: _542  and  _543
REMARK  223  A    between atoms: _546  and  _548
REMARK  224  A    between atoms: _548  and  _549
REMARK  225  A    between atoms: _551  and  _553
REMARK  226  A    between atoms: _553  and  _554
REMARK  227  A    between atoms: _553  and  _556
REMARK  228  A    between atoms: _556  and  _557
REMARK  229  A    between atoms: _557  and  _558
REMARK  230  A    between atoms: _558  and  _559
REMARK  231  A    between atoms: _568  and  _570
REMARK  232  A    between atoms: _570  and  _571
REMARK  233  A    between atoms: _570  and  _573
REMARK  234  A    between atoms: _573  and  _574
REMARK                            x       y       z     vdW  Elec       q    Type
REMARK                         _______ _______ _______ _____ _____    ______ ____
ROOT
ATOM      1  O   HOH     1      11.442 -27.329  -8.612  0.00  0.00    +0.000 OA
ENDROOT
TORSDOF 0
REMARK  Name = ../refined-set-2016/2o4s/2o4s_pocket.pdb
REMARK  234 active torsions:
REMARK  status: ('A' for Active; 'I' for Inactive)
REMARK    1  A    between atoms: _1  and  _3
REMARK    2  A    between atoms: _3  and  _4
REMARK    3  A    between atoms: _3  and  _6
REMARK    4  A    between atoms: _6  and  _7
REMARK    5  A    between atoms: _7  and  _8
REMARK    6  A    between atoms: _8  and  _9
REMARK    7  A    between atoms: _18  and  _20
REMARK    8  A    between atoms: _20  and  _21
REMARK    9  A    between atoms: _20  and  _23
REMARK   10  A    between atoms: _23  and  _24
REMARK   11  A    between atoms: _27  and  _29
REMARK   12  A    between atoms: _29  and  _30
REMARK   13  A    between atoms: _29  and  _32
REMARK   14  A    between atoms: _32  and  _33
REMARK   15  A    between atoms: _36  and  _38
REMARK   16  A    between atoms: _38  and  _39
REMARK   17  A    between atoms: _38  and  _41
REMARK   18  A    between atoms: _41  and  _42
REMARK   19  A    between atoms: _45  and  _47
REMARK   20  A    between atoms: _47  and  _48
REMARK   21  A    between atoms: _47  and  _50
REMARK   22  A    between atoms: _50  and  _51
REMARK   23  A    between atoms: _54  and  _56
REMARK   24  A    between atoms: _56  and  _57
REMARK   25  A    between atoms: _59  and  _61
REMARK   26  A    between atoms: _61  and  _62
REMARK   27  A    between atoms: _65  and  _67
REMARK   28  A    between atoms: _67  and  _68
REMARK   29  A    between atoms: _67  and  _70
REMARK   30  A    between atoms: _70  and  _71
REMARK   31  A    between atoms: _74  and  _76
REMARK   32  A    between atoms: _76  and  _77
REMARK   33  A    between atoms: _76  and  _79
REMARK   34  A    between atoms: _79  and  _80
REMARK   35  A    between atoms: _83  and  _85
REMARK   36  A    between atoms: _85  and  _86
REMARK   37  A    between atoms: _85  and  _88
REMARK   38  A    between atoms: _88  and  _89
REMARK   39  A    between atoms: _92  and  _94
REMARK   40  A    between atoms: _94  and  _95
REMARK   41  A    between atoms: _94  and  _97
REMARK   42  A    between atoms: _100  and  _102
REMARK   43  A    between atoms: _102  and  _103
REMARK   44  A    between atoms: _102  and  _105
REMARK   45  A    between atoms: _105  and  _106
REMARK   46  A    between atoms: _106  and  _107
REMARK   47  A    between atoms: _107  and  _108
REMARK   48  A    between atoms: _108  and  _109
REMARK   49  A    between atoms: _113  and  _115
REMARK   50  A    between atoms: _115  and  _116
REMARK   51  A    between atoms: _115  and  _118
REMARK   52  A    between atoms: _118  and  _119
REMARK   53  A    between atoms: _119  and  _120
REMARK   54  A    between atoms: _122  and  _124
REMARK   55  A    between atoms: _124  and  _125
REMARK   56  A    between atoms: _124  and  _127
REMARK   57  A    between atoms: _127  and  _128
REMARK   58  A    between atoms: _131  and  _133
REMARK   59  A    between atoms: _133  and  _134
REMARK   60  A    between atoms: _136  and  _138
REMARK   61  A    between atoms: _138  and  _139
REMARK   62  A    between atoms: _141  and  _143
REMARK   63  A    between atoms: _143  and  _144
REMARK   64  A    between atoms: _143  and  _146
REMARK   65  A    between atoms: _146  and  _147
REMARK   66  A    between atoms: _150  and  _152
REMARK   67  A    between atoms: _152  and  _153
REMARK   68  A    between atoms: _155  and  _157
REMARK   69  A    between atoms: _157  and  _158
REMARK   70  A    between atoms: _160  and  _162
REMARK   71  A    between atoms: _162  and  _163
REMARK   72  A    between atoms: _162  and  _165
REMARK   73  A    between atoms: _165  and  _166
REMARK   74  A    between atoms: _172  and  _174
REMARK   75  A    between atoms: _174  and  _175
REMARK   76  A    between atoms: _174  and  _177
REMARK   77  A    between atoms: _177  and  _178
REMARK   78  A    between atoms: _181  and  _183
REMARK   79  A    between atoms: _183  and  _184
REMARK   80  A    between atoms: _183  and  _186
REMARK   81  A    between atoms: _189  and  _191
REMARK   82  A    between atoms: _191  and  _192
REMARK   83  A    between atoms: _191  and  _194
REMARK   84  A    between atoms: _194  and  _195
REMARK   85  A    between atoms: _199  and  _200
REMARK   86  A    between atoms: _205  and  _207
REMARK   87  A    between atoms: _207  and  _208
REMARK   88  A    between atoms: _207  and  _210
REMARK   89  A    between atoms: _210  and  _211
REMARK   90  A    between atoms: _215  and  _216
REMARK   91  A    between atoms: _221  and  _223
REMARK   92  A    between atoms: _223  and  _224
REMARK   93  A    between atoms: _223  and  _226
REMARK   94  A    between atoms: _229  and  _231
REMARK   95  A    between atoms: _231  and  _232
REMARK   96  A    between atoms: _231  and  _234
REMARK   97  A    between atoms: _234  and  _235
REMARK   98  A    between atoms: _240  and  _242
REMARK   99  A    between atoms: _242  and  _243
REMARK  100  A    between atoms: _242  and  _245
REMARK  101  A    between atoms: _245  and  _246
REMARK  102  A    between atoms: _249  and  _251
REMARK  103  A    between atoms: _251  and  _252
REMARK  104  A    between atoms: _251  and  _254
REMARK  105  A    between atoms: _254  and  _255
REMARK  106  A    between atoms: _258  and  _260
REMARK  107  A    between atoms: _260  and  _261
REMARK  108  A    between atoms: _263  and  _265
REMARK  109  A    between atoms: _265  and  _266
REMARK  110  A    between atoms: _265  and  _268
REMARK  111  A    between atoms: _268  and  _269
REMARK  112  A    between atoms: _269  and  _270
REMARK  113  A    between atoms: _270  and  _271
REMARK  114  A    between atoms: _280  and  _282
REMARK  115  A    between atoms: _282  and  _283
REMARK  116  A    between atoms: _282  and  _285
REMARK  117  A    between atoms: _285  and  _286
REMARK  118  A    between atoms: _286  and  _287
REMARK  119  A    between atoms: _287  and  _288
REMARK  120  A    between atoms: _297  and  _299
REMARK  121  A    between atoms: _299  and  _300
REMARK  122  A    between atoms: _299  and  _302
REMARK  123  A    between atoms: _302  and  _303
REMARK  124  A    between atoms: _306  and  _308
REMARK  125  A    between atoms: _308  and  _309
REMARK  126  A    between atoms: _308  and  _311
REMARK  127  A    between atoms: _311  and  _312
REMARK  128  A    between atoms: _315  and  _317
REMARK  129  A    between atoms: _317  and  _318
REMARK  130  A    between atoms: _317  and  _320
REMARK  131  A    between atoms: _320  and  _321
REMARK  132  A    between atoms: _324  and  _326
REMARK  133  A    between atoms: _326  and  _327
REMARK  134  A    between atoms: _326  and  _329
REMARK  135  A    between atoms: _329  and  _330
REMARK  136  A    between atoms: _333  and  _335
REMARK  137  A    between atoms: _335  and  _336
REMARK  138  A    between atoms: _338  and  _340
REMARK  139  A    between atoms: _340  and  _341
REMARK  140  A    between atoms: _344  and  _346
REMARK  141  A    between atoms: _346  and  _347
REMARK  142  A    between atoms: _346  and  _349
REMARK  143  A    between atoms: _349  and  _350
REMARK  144  A    between atoms: _353  and  _355
REMARK  145  A    between atoms: _355  and  _356
REMARK  146  A    between atoms: _355  and  _358
REMARK  147  A    between atoms: _358  and  _359
REMARK  148  A    between atoms: _362  and  _364
REMARK  149  A    between atoms: _364  and  _365
REMARK  150  A    between atoms: _364  and  _367
REMARK  151  A    between atoms: _367  and  _368
REMARK  152  A    between atoms: _371  and  _373
REMARK  153  A    between atoms: _373  and  _374
REMARK  154  A    between atoms: _373  and  _376
REMARK  155  A    between atoms: _379  and  _381
REMARK  156  A    between atoms: _381  and  _382
REMARK  157  A    between atoms: _381  and  _384
REMARK  158  A    between atoms: _384  and  _385
REMARK  159  A    between atoms: _388  and  _390
REMARK  160  A    between atoms: _390  and  _391
REMARK  161  A    between atoms: _390  and  _393
REMARK  162  A    between atoms: _393  and  _394
REMARK  163  A    between atoms: _394  and  _395
REMARK  164  A    between atoms: _395  and  _396
REMARK  165  A    between atoms: _396  and  _397
REMARK  166  A    between atoms: _401  and  _403
REMARK  167  A    between atoms: _403  and  _404
REMARK  168  A    between atoms: _403  and  _406
REMARK  169  A    between atoms: _406  and  _407
REMARK  170  A    between atoms: _407  and  _408
REMARK  171  A    between atoms: _410  and  _412
REMARK  172  A    between atoms: _412  and  _413
REMARK  173  A    between atoms: _412  and  _415
REMARK  174  A    between atoms: _415  and  _416
REMARK  175  A    between atoms: _419  and  _421
REMARK  176  A    between atoms: _421  and  _422
REMARK  177  A    between atoms: _424  and  _426
REMARK  178  A    between atoms: _426  and  _427
REMARK  179  A    between atoms: _429  and  _431
REMARK  180  A    between atoms: _431  and  _432
REMARK  181  A    between atoms: _431  and  _434
REMARK  182  A    between atoms: _434  and  _435
REMARK  183  A    between atoms: _438  and  _440
REMARK  184  A    between atoms: _440  and  _441
REMARK  185  A    between atoms: _443  and  _445
REMARK  186  A    between atoms: _445  and  _446
REMARK  187  A    between atoms: _448  and  _450
REMARK  188  A    between atoms: _450  and  _451
REMARK  189  A    between atoms: _450  and  _453
REMARK  190  A    between atoms: _453  and  _454
REMARK  191  A    between atoms: _460  and  _462
REMARK  192  A    between atoms: _462  and  _463
REMARK  193  A    between atoms: _462  and  _465
REMARK  194  A    between atoms: _465  and  _466
REMARK  195  A    between atoms: _469  and  _471
REMARK  196  A    between atoms: _471  and  _472
REMARK  197  A    between atoms: _471  and  _474
REMARK  198  A    between atoms: _477  and  _479
REMARK  199  A    between atoms: _479  and  _480
REMARK  200  A    between atoms: _479  and  _482
REMARK  201  A    between atoms: _482  and  _483
REMARK  202  A    between atoms: _487  and  _488
REMARK  203  A    between atoms: _493  and  _495
REMARK  204  A    between atoms: _495  and  _496
REMARK  205  A    between atoms: _495  and  _498
REMARK  206  A    between atoms: _498  and  _499
REMARK  207  A    between atoms: _503  and  _504
REMARK  208  A    between atoms: _509  and  _511
REMARK  209  A    between atoms: _511  and  _512
REMARK  210  A    between atoms: _511  and  _514
REMARK  211  A    between atoms: _517  and  _519
REMARK  212  A    between atoms: _519  and  _520
REMARK  213  A    between atoms: _519  and  _522
REMARK  214  A    between atoms: _522  and  _523
REMARK  215  A    between atoms: _528  and  _530
REMARK  216  A    between atoms: _530  and  _531
REMARK  217  A    between atoms: _530  and  _533
REMARK  218  A    between atoms: _533  and  _534
REMARK  219  A    between atoms: _537  and  _539
REMARK  220  A    between atoms: _539  and  _540
REMARK  221  A    between atoms: _539  and  _542
REMARK  222  A    between atoms: _542  and  _543
REMARK  223  A    between atoms: _546  and  _548
REMARK  224  A    between atoms: _548  and  _549
REMARK  225  A    between atoms: _551  and  _553
REMARK  226  A    between atoms: _553  and  _554
REMARK  227  A    between atoms: _553  and  _556
REMARK  228  A    between atoms: _556  and  _557
REMARK  229  A    between atoms: _557  and  _558
REMARK  230  A    between atoms: _558  and  _559
REMARK  231  A    between atoms: _568  and  _570
REMARK  232  A    between atoms: _570  and  _571
REMARK  233  A    between atoms: _570  and  _573
REMARK  234  A    between atoms: _573  and  _574
REMARK                            x       y       z     vdW  Elec       q    Type
REMARK                         _______ _______ _______ _____ _____    ______ ____
ROOT
ATOM      1  O   HOH     1      15.620 -28.118  -8.482  0.00  0.00    +0.000 OA
ENDROOT
TORSDOF 0
REMARK  Name = ../refined-set-2016/2o4s/2o4s_pocket.pdb
REMARK  234 active torsions:
REMARK  status: ('A' for Active; 'I' for Inactive)
REMARK    1  A    between atoms: _1  and  _3
REMARK    2  A    between atoms: _3  and  _4
REMARK    3  A    between atoms: _3  and  _6
REMARK    4  A    between atoms: _6  and  _7
REMARK    5  A    between atoms: _7  and  _8
REMARK    6  A    between atoms: _8  and  _9
REMARK    7  A    between atoms: _18  and  _20
REMARK    8  A    between atoms: _20  and  _21
REMARK    9  A    between atoms: _20  and  _23
REMARK   10  A    between atoms: _23  and  _24
REMARK   11  A    between atoms: _27  and  _29
REMARK   12  A    between atoms: _29  and  _30
REMARK   13  A    between atoms: _29  and  _32
REMARK   14  A    between atoms: _32  and  _33
REMARK   15  A    between atoms: _36  and  _38
REMARK   16  A    between atoms: _38  and  _39
REMARK   17  A    between atoms: _38  and  _41
REMARK   18  A    between atoms: _41  and  _42
REMARK   19  A    between atoms: _45  and  _47
REMARK   20  A    between atoms: _47  and  _48
REMARK   21  A    between atoms: _47  and  _50
REMARK   22  A    between atoms: _50  and  _51
REMARK   23  A    between atoms: _54  and  _56
REMARK   24  A    between atoms: _56  and  _57
REMARK   25  A    between atoms: _59  and  _61
REMARK   26  A    between atoms: _61  and  _62
REMARK   27  A    between atoms: _65  and  _67
REMARK   28  A    between atoms: _67  and  _68
REMARK   29  A    between atoms: _67  and  _70
REMARK   30  A    between atoms: _70  and  _71
REMARK   31  A    between atoms: _74  and  _76
REMARK   32  A    between atoms: _76  and  _77
REMARK   33  A    between atoms: _76  and  _79
REMARK   34  A    between atoms: _79  and  _80
REMARK   35  A    between atoms: _83  and  _85
REMARK   36  A    between atoms: _85  and  _86
REMARK   37  A    between atoms: _85  and  _88
REMARK   38  A    between atoms: _88  and  _89
REMARK   39  A    between atoms: _92  and  _94
REMARK   40  A    between atoms: _94  and  _95
REMARK   41  A    between atoms: _94  and  _97
REMARK   42  A    between atoms: _100  and  _102
REMARK   43  A    between atoms: _102  and  _103
REMARK   44  A    between atoms: _102  and  _105
REMARK   45  A    between atoms: _105  and  _106
REMARK   46  A    between atoms: _106  and  _107
REMARK   47  A    between atoms: _107  and  _108
REMARK   48  A    between atoms: _108  and  _109
REMARK   49  A    between atoms: _113  and  _115
REMARK   50  A    between atoms: _115  and  _116
REMARK   51  A    between atoms: _115  and  _118
REMARK   52  A    between atoms: _118  and  _119
REMARK   53  A    between atoms: _119  and  _120
REMARK   54  A    between atoms: _122  and  _124
REMARK   55  A    between atoms: _124  and  _125
REMARK   56  A    between atoms: _124  and  _127
REMARK   57  A    between atoms: _127  and  _128
REMARK   58  A    between atoms: _131  and  _133
REMARK   59  A    between atoms: _133  and  _134
REMARK   60  A    between atoms: _136  and  _138
REMARK   61  A    between atoms: _138  and  _139
REMARK   62  A    between atoms: _141  and  _143
REMARK   63  A    between atoms: _143  and  _144
REMARK   64  A    between atoms: _143  and  _146
REMARK   65  A    between atoms: _146  and  _147
REMARK   66  A    between atoms: _150  and  _152
REMARK   67  A    between atoms: _152  and  _153
REMARK   68  A    between atoms: _155  and  _157
REMARK   69  A    between atoms: _157  and  _158
REMARK   70  A    between atoms: _160  and  _162
REMARK   71  A    between atoms: _162  and  _163
REMARK   72  A    between atoms: _162  and  _165
REMARK   73  A    between atoms: _165  and  _166
REMARK   74  A    between atoms: _172  and  _174
REMARK   75  A    between atoms: _174  and  _175
REMARK   76  A    between atoms: _174  and  _177
REMARK   77  A    between atoms: _177  and  _178
REMARK   78  A    between atoms: _181  and  _183
REMARK   79  A    between atoms: _183  and  _184
REMARK   80  A    between atoms: _183  and  _186
REMARK   81  A    between atoms: _189  and  _191
REMARK   82  A    between atoms: _191  and  _192
REMARK   83  A    between atoms: _191  and  _194
REMARK   84  A    between atoms: _194  and  _195
REMARK   85  A    between atoms: _199  and  _200
REMARK   86  A    between atoms: _205  and  _207
REMARK   87  A    between atoms: _207  and  _208
REMARK   88  A    between atoms: _207  and  _210
REMARK   89  A    between atoms: _210  and  _211
REMARK   90  A    between atoms: _215  and  _216
REMARK   91  A    between atoms: _221  and  _223
REMARK   92  A    between atoms: _223  and  _224
REMARK   93  A    between atoms: _223  and  _226
REMARK   94  A    between atoms: _229  and  _231
REMARK   95  A    between atoms: _231  and  _232
REMARK   96  A    between atoms: _231  and  _234
REMARK   97  A    between atoms: _234  and  _235
REMARK   98  A    between atoms: _240  and  _242
REMARK   99  A    between atoms: _242  and  _243
REMARK  100  A    between atoms: _242  and  _245
REMARK  101  A    between atoms: _245  and  _246
REMARK  102  A    between atoms: _249  and  _251
REMARK  103  A    between atoms: _251  and  _252
REMARK  104  A    between atoms: _251  and  _254
REMARK  105  A    between atoms: _254  and  _255
REMARK  106  A    between atoms: _258  and  _260
REMARK  107  A    between atoms: _260  and  _261
REMARK  108  A    between atoms: _263  and  _265
REMARK  109  A    between atoms: _265  and  _266
REMARK  110  A    between atoms: _265  and  _268
REMARK  111  A    between atoms: _268  and  _269
REMARK  112  A    between atoms: _269  and  _270
REMARK  113  A    between atoms: _270  and  _271
REMARK  114  A    between atoms: _280  and  _282
REMARK  115  A    between atoms: _282  and  _283
REMARK  116  A    between atoms: _282  and  _285
REMARK  117  A    between atoms: _285  and  _286
REMARK  118  A    between atoms: _286  and  _287
REMARK  119  A    between atoms: _287  and  _288
REMARK  120  A    between atoms: _297  and  _299
REMARK  121  A    between atoms: _299  and  _300
REMARK  122  A    between atoms: _299  and  _302
REMARK  123  A    between atoms: _302  and  _303
REMARK  124  A    between atoms: _306  and  _308
REMARK  125  A    between atoms: _308  and  _309
REMARK  126  A    between atoms: _308  and  _311
REMARK  127  A    between atoms: _311  and  _312
REMARK  128  A    between atoms: _315  and  _317
REMARK  129  A    between atoms: _317  and  _318
REMARK  130  A    between atoms: _317  and  _320
REMARK  131  A    between atoms: _320  and  _321
REMARK  132  A    between atoms: _324  and  _326
REMARK  133  A    between atoms: _326  and  _327
REMARK  134  A    between atoms: _326  and  _329
REMARK  135  A    between atoms: _329  and  _330
REMARK  136  A    between atoms: _333  and  _335
REMARK  137  A    between atoms: _335  and  _336
REMARK  138  A    between atoms: _338  and  _340
REMARK  139  A    between atoms: _340  and  _341
REMARK  140  A    between atoms: _344  and  _346
REMARK  141  A    between atoms: _346  and  _347
REMARK  142  A    between atoms: _346  and  _349
REMARK  143  A    between atoms: _349  and  _350
REMARK  144  A    between atoms: _353  and  _355
REMARK  145  A    between atoms: _355  and  _356
REMARK  146  A    between atoms: _355  and  _358
REMARK  147  A    between atoms: _358  and  _359
REMARK  148  A    between atoms: _362  and  _364
REMARK  149  A    between atoms: _364  and  _365
REMARK  150  A    between atoms: _364  and  _367
REMARK  151  A    between atoms: _367  and  _368
REMARK  152  A    between atoms: _371  and  _373
REMARK  153  A    between atoms: _373  and  _374
REMARK  154  A    between atoms: _373  and  _376
REMARK  155  A    between atoms: _379  and  _381
REMARK  156  A    between atoms: _381  and  _382
REMARK  157  A    between atoms: _381  and  _384
REMARK  158  A    between atoms: _384  and  _385
REMARK  159  A    between atoms: _388  and  _390
REMARK  160  A    between atoms: _390  and  _391
REMARK  161  A    between atoms: _390  and  _393
REMARK  162  A    between atoms: _393  and  _394
REMARK  163  A    between atoms: _394  and  _395
REMARK  164  A    between atoms: _395  and  _396
REMARK  165  A    between atoms: _396  and  _397
REMARK  166  A    between atoms: _401  and  _403
REMARK  167  A    between atoms: _403  and  _404
REMARK  168  A    between atoms: _403  and  _406
REMARK  169  A    between atoms: _406  and  _407
REMARK  170  A    between atoms: _407  and  _408
REMARK  171  A    between atoms: _410  and  _412
REMARK  172  A    between atoms: _412  and  _413
REMARK  173  A    between atoms: _412  and  _415
REMARK  174  A    between atoms: _415  and  _416
REMARK  175  A    between atoms: _419  and  _421
REMARK  176  A    between atoms: _421  and  _422
REMARK  177  A    between atoms: _424  and  _426
REMARK  178  A    between atoms: _426  and  _427
REMARK  179  A    between atoms: _429  and  _431
REMARK  180  A    between atoms: _431  and  _432
REMARK  181  A    between atoms: _431  and  _434
REMARK  182  A    between atoms: _434  and  _435
REMARK  183  A    between atoms: _438  and  _440
REMARK  184  A    between atoms: _440  and  _441
REMARK  185  A    between atoms: _443  and  _445
REMARK  186  A    between atoms: _445  and  _446
REMARK  187  A    between atoms: _448  and  _450
REMARK  188  A    between atoms: _450  and  _451
REMARK  189  A    between atoms: _450  and  _453
REMARK  190  A    between atoms: _453  and  _454
REMARK  191  A    between atoms: _460  and  _462
REMARK  192  A    between atoms: _462  and  _463
REMARK  193  A    between atoms: _462  and  _465
REMARK  194  A    between atoms: _465  and  _466
REMARK  195  A    between atoms: _469  and  _471
REMARK  196  A    between atoms: _471  and  _472
REMARK  197  A    between atoms: _471  and  _474
REMARK  198  A    between atoms: _477  and  _479
REMARK  199  A    between atoms: _479  and  _480
REMARK  200  A    between atoms: _479  and  _482
REMARK  201  A    between atoms: _482  and  _483
REMARK  202  A    between atoms: _487  and  _488
REMARK  203  A    between atoms: _493  and  _495
REMARK  204  A    between atoms: _495  and  _496
REMARK  205  A    between atoms: _495  and  _498
REMARK  206  A    between atoms: _498  and  _499
REMARK  207  A    between atoms: _503  and  _504
REMARK  208  A    between atoms: _509  and  _511
REMARK  209  A    between atoms: _511  and  _512
REMARK  210  A    between atoms: _511  and  _514
REMARK  211  A    between atoms: _517  and  _519
REMARK  212  A    between atoms: _519  and  _520
REMARK  213  A    between atoms: _519  and  _522
REMARK  214  A    between atoms: _522  and  _523
REMARK  215  A    between atoms: _528  and  _530
REMARK  216  A    between atoms: _530  and  _531
REMARK  217  A    between atoms: _530  and  _533
REMARK  218  A    between atoms: _533  and  _534
REMARK  219  A    between atoms: _537  and  _539
REMARK  220  A    between atoms: _539  and  _540
REMARK  221  A    between atoms: _539  and  _542
REMARK  222  A    between atoms: _542  and  _543
REMARK  223  A    between atoms: _546  and  _548
REMARK  224  A    between atoms: _548  and  _549
REMARK  225  A    between atoms: _551  and  _553
REMARK  226  A    between atoms: _553  and  _554
REMARK  227  A    between atoms: _553  and  _556
REMARK  228  A    between atoms: _556  and  _557
REMARK  229  A    between atoms: _557  and  _558
REMARK  230  A    between atoms: _558  and  _559
REMARK  231  A    between atoms: _568  and  _570
REMARK  232  A    between atoms: _570  and  _571
REMARK  233  A    between atoms: _570  and  _573
REMARK  234  A    between atoms: _573  and  _574
REMARK                            x       y       z     vdW  Elec       q    Type
REMARK                         _______ _______ _______ _____ _____    ______ ____
ROOT
ATOM      1  O   HOH     1      24.950 -26.685 -21.708  0.00  0.00    +0.000 OA
ENDROOT
TORSDOF 0
