REMARK  Name = ../refined-set-2016/2olb/2olb_pocket.pdb
REMARK  267 active torsions:
REMARK  status: ('A' for Active; 'I' for Inactive)
REMARK    1  A    between atoms: _1  and  _3
REMARK    2  A    between atoms: _3  and  _4
REMARK    3  A    between atoms: _3  and  _6
REMARK    4  A    between atoms: _6  and  _7
REMARK    5  A    between atoms: _12  and  _14
REMARK    6  A    between atoms: _14  and  _15
REMARK    7  A    between atoms: _17  and  _19
REMARK    8  A    between atoms: _19  and  _20
REMARK    9  A    between atoms: _19  and  _22
REMARK   10  A    between atoms: _22  and  _23
REMARK   11  A    between atoms: _23  and  _24
REMARK   12  A    between atoms: _29  and  _31
REMARK   13  A    between atoms: _31  and  _32
REMARK   14  A    between atoms: _31  and  _34
REMARK   15  A    between atoms: _34  and  _35
REMARK   16  A    between atoms: _38  and  _40
REMARK   17  A    between atoms: _40  and  _41
REMARK   18  A    between atoms: _40  and  _43
REMARK   19  A    between atoms: _43  and  _44
REMARK   20  A    between atoms: _44  and  _45
REMARK   21  A    between atoms: _48  and  _50
REMARK   22  A    between atoms: _50  and  _51
REMARK   23  A    between atoms: _53  and  _55
REMARK   24  A    between atoms: _55  and  _56
REMARK   25  A    between atoms: _55  and  _58
REMARK   26  A    between atoms: _62  and  _63
REMARK   27  A    between atoms: _68  and  _70
REMARK   28  A    between atoms: _70  and  _71
REMARK   29  A    between atoms: _70  and  _73
REMARK   30  A    between atoms: _73  and  _74
REMARK   31  A    between atoms: _74  and  _75
REMARK   32  A    between atoms: _78  and  _80
REMARK   33  A    between atoms: _80  and  _81
REMARK   34  A    between atoms: _80  and  _83
REMARK   35  A    between atoms: _83  and  _84
REMARK   36  A    between atoms: _86  and  _88
REMARK   37  A    between atoms: _88  and  _89
REMARK   38  A    between atoms: _88  and  _91
REMARK   39  A    between atoms: _91  and  _92
REMARK   40  A    between atoms: _97  and  _99
REMARK   41  A    between atoms: _99  and  _100
REMARK   42  A    between atoms: _99  and  _102
REMARK   43  A    between atoms: _102  and  _103
REMARK   44  A    between atoms: _103  and  _104
REMARK   45  A    between atoms: _104  and  _105
REMARK   46  A    between atoms: _115  and  _116
REMARK   47  A    between atoms: _121  and  _123
REMARK   48  A    between atoms: _123  and  _124
REMARK   49  A    between atoms: _123  and  _126
REMARK   50  A    between atoms: _126  and  _127
REMARK   51  A    between atoms: _132  and  _133
REMARK   52  A    between atoms: _135  and  _137
REMARK   53  A    between atoms: _137  and  _138
REMARK   54  A    between atoms: _137  and  _140
REMARK   55  A    between atoms: _140  and  _141
REMARK   56  A    between atoms: _146  and  _147
REMARK   57  A    between atoms: _149  and  _151
REMARK   58  A    between atoms: _151  and  _152
REMARK   59  A    between atoms: _151  and  _154
REMARK   60  A    between atoms: _157  and  _159
REMARK   61  A    between atoms: _159  and  _160
REMARK   62  A    between atoms: _159  and  _162
REMARK   63  A    between atoms: _162  and  _163
REMARK   64  A    between atoms: _169  and  _170
REMARK   65  A    between atoms: _175  and  _177
REMARK   66  A    between atoms: _177  and  _178
REMARK   67  A    between atoms: _177  and  _180
REMARK   68  A    between atoms: _180  and  _181
REMARK   69  A    between atoms: _183  and  _185
REMARK   70  A    between atoms: _185  and  _186
REMARK   71  A    between atoms: _185  and  _188
REMARK   72  A    between atoms: _188  and  _189
REMARK   73  A    between atoms: _189  and  _190
REMARK   74  A    between atoms: _193  and  _195
REMARK   75  A    between atoms: _195  and  _196
REMARK   76  A    between atoms: _195  and  _198
REMARK   77  A    between atoms: _198  and  _199
REMARK   78  A    between atoms: _204  and  _205
REMARK   79  A    between atoms: _207  and  _209
REMARK   80  A    between atoms: _209  and  _210
REMARK   81  A    between atoms: _209  and  _212
REMARK   82  A    between atoms: _212  and  _213
REMARK   83  A    between atoms: _218  and  _220
REMARK   84  A    between atoms: _220  and  _221
REMARK   85  A    between atoms: _220  and  _223
REMARK   86  A    between atoms: _223  and  _224
REMARK   87  A    between atoms: _229  and  _231
REMARK   88  A    between atoms: _231  and  _232
REMARK   89  A    between atoms: _231  and  _234
REMARK   90  A    between atoms: _234  and  _235
REMARK   91  A    between atoms: _235  and  _236
REMARK   92  A    between atoms: _238  and  _240
REMARK   93  A    between atoms: _240  and  _241
REMARK   94  A    between atoms: _240  and  _243
REMARK   95  A    between atoms: _243  and  _244
REMARK   96  A    between atoms: _249  and  _250
REMARK   97  A    between atoms: _252  and  _254
REMARK   98  A    between atoms: _254  and  _255
REMARK   99  A    between atoms: _254  and  _257
REMARK  100  A    between atoms: _257  and  _258
REMARK  101  A    between atoms: _261  and  _263
REMARK  102  A    between atoms: _263  and  _264
REMARK  103  A    between atoms: _263  and  _266
REMARK  104  A    between atoms: _266  and  _267
REMARK  105  A    between atoms: _267  and  _484
REMARK  106  A    between atoms: _268  and  _270
REMARK  107  A    between atoms: _270  and  _271
REMARK  108  A    between atoms: _270  and  _273
REMARK  109  A    between atoms: _273  and  _274
REMARK  110  A    between atoms: _277  and  _279
REMARK  111  A    between atoms: _279  and  _280
REMARK  112  A    between atoms: _279  and  _282
REMARK  113  A    between atoms: _282  and  _283
REMARK  114  A    between atoms: _288  and  _289
REMARK  115  A    between atoms: _291  and  _293
REMARK  116  A    between atoms: _293  and  _294
REMARK  117  A    between atoms: _293  and  _296
REMARK  118  A    between atoms: _296  and  _297
REMARK  119  A    between atoms: _302  and  _303
REMARK  120  A    between atoms: _305  and  _307
REMARK  121  A    between atoms: _307  and  _308
REMARK  122  A    between atoms: _307  and  _310
REMARK  123  A    between atoms: _310  and  _311
REMARK  124  A    between atoms: _311  and  _312
REMARK  125  A    between atoms: _315  and  _317
REMARK  126  A    between atoms: _317  and  _318
REMARK  127  A    between atoms: _317  and  _320
REMARK  128  A    between atoms: _320  and  _321
REMARK  129  A    between atoms: _326  and  _327
REMARK  130  A    between atoms: _329  and  _331
REMARK  131  A    between atoms: _331  and  _332
REMARK  132  A    between atoms: _331  and  _334
REMARK  133  A    between atoms: _334  and  _335
REMARK  134  A    between atoms: _340  and  _342
REMARK  135  A    between atoms: _342  and  _343
REMARK  136  A    between atoms: _342  and  _345
REMARK  137  A    between atoms: _345  and  _346
REMARK  138  A    between atoms: _349  and  _351
REMARK  139  A    between atoms: _351  and  _352
REMARK  140  A    between atoms: _351  and  _354
REMARK  141  A    between atoms: _354  and  _355
REMARK  142  A    between atoms: _360  and  _362
REMARK  143  A    between atoms: _362  and  _363
REMARK  144  A    between atoms: _362  and  _365
REMARK  145  A    between atoms: _365  and  _366
REMARK  146  A    between atoms: _376  and  _378
REMARK  147  A    between atoms: _378  and  _379
REMARK  148  A    between atoms: _378  and  _381
REMARK  149  A    between atoms: _381  and  _382
REMARK  150  A    between atoms: _388  and  _390
REMARK  151  A    between atoms: _390  and  _391
REMARK  152  A    between atoms: _390  and  _393
REMARK  153  A    between atoms: _393  and  _394
REMARK  154  A    between atoms: _397  and  _399
REMARK  155  A    between atoms: _399  and  _400
REMARK  156  A    between atoms: _399  and  _402
REMARK  157  A    between atoms: _402  and  _403
REMARK  158  A    between atoms: _406  and  _408
REMARK  159  A    between atoms: _408  and  _409
REMARK  160  A    between atoms: _408  and  _411
REMARK  161  A    between atoms: _411  and  _412
REMARK  162  A    between atoms: _412  and  _413
REMARK  163  A    between atoms: _413  and  _414
REMARK  164  A    between atoms: _423  and  _425
REMARK  165  A    between atoms: _425  and  _426
REMARK  166  A    between atoms: _425  and  _428
REMARK  167  A    between atoms: _428  and  _429
REMARK  168  A    between atoms: _434  and  _436
REMARK  169  A    between atoms: _436  and  _437
REMARK  170  A    between atoms: _436  and  _439
REMARK  171  A    between atoms: _439  and  _440
REMARK  172  A    between atoms: _440  and  _441
REMARK  173  A    between atoms: _441  and  _442
REMARK  174  A    between atoms: _451  and  _453
REMARK  175  A    between atoms: _453  and  _454
REMARK  176  A    between atoms: _457  and  _459
REMARK  177  A    between atoms: _459  and  _460
REMARK  178  A    between atoms: _462  and  _464
REMARK  179  A    between atoms: _464  and  _465
REMARK  180  A    between atoms: _464  and  _467
REMARK  181  A    between atoms: _467  and  _468
REMARK  182  A    between atoms: _478  and  _480
REMARK  183  A    between atoms: _480  and  _481
REMARK  184  A    between atoms: _480  and  _483
REMARK  185  A    between atoms: _483  and  _484
REMARK  186  A    between atoms: _485  and  _487
REMARK  187  A    between atoms: _487  and  _488
REMARK  188  A    between atoms: _491  and  _493
REMARK  189  A    between atoms: _493  and  _494
REMARK  190  A    between atoms: _493  and  _496
REMARK  191  A    between atoms: _496  and  _497
REMARK  192  A    between atoms: _500  and  _502
REMARK  193  A    between atoms: _502  and  _503
REMARK  194  A    between atoms: _502  and  _505
REMARK  195  A    between atoms: _505  and  _506
REMARK  196  A    between atoms: _511  and  _512
REMARK  197  A    between atoms: _514  and  _516
REMARK  198  A    between atoms: _516  and  _517
REMARK  199  A    between atoms: _516  and  _519
REMARK  200  A    between atoms: _519  and  _520
REMARK  201  A    between atoms: _522  and  _524
REMARK  202  A    between atoms: _524  and  _525
REMARK  203  A    between atoms: _524  and  _527
REMARK  204  A    between atoms: _527  and  _528
REMARK  205  A    between atoms: _534  and  _536
REMARK  206  A    between atoms: _536  and  _537
REMARK  207  A    between atoms: _536  and  _539
REMARK  208  A    between atoms: _539  and  _540
REMARK  209  A    between atoms: _543  and  _545
REMARK  210  A    between atoms: _545  and  _546
REMARK  211  A    between atoms: _545  and  _548
REMARK  212  A    between atoms: _548  and  _549
REMARK  213  A    between atoms: _551  and  _553
REMARK  214  A    between atoms: _553  and  _554
REMARK  215  A    between atoms: _553  and  _556
REMARK  216  A    between atoms: _556  and  _557
REMARK  217  A    between atoms: _559  and  _561
REMARK  218  A    between atoms: _561  and  _562
REMARK  219  A    between atoms: _561  and  _564
REMARK  220  A    between atoms: _564  and  _565
REMARK  221  A    between atoms: _570  and  _572
REMARK  222  A    between atoms: _572  and  _573
REMARK  223  A    between atoms: _572  and  _575
REMARK  224  A    between atoms: _575  and  _576
REMARK  225  A    between atoms: _581  and  _583
REMARK  226  A    between atoms: _583  and  _584
REMARK  227  A    between atoms: _583  and  _586
REMARK  228  A    between atoms: _586  and  _587
REMARK  229  A    between atoms: _590  and  _592
REMARK  230  A    between atoms: _592  and  _593
REMARK  231  A    between atoms: _596  and  _598
REMARK  232  A    between atoms: _598  and  _599
REMARK  233  A    between atoms: _598  and  _601
REMARK  234  A    between atoms: _601  and  _602
REMARK  235  A    between atoms: _607  and  _608
REMARK  236  A    between atoms: _610  and  _612
REMARK  237  A    between atoms: _612  and  _613
REMARK  238  A    between atoms: _612  and  _615
REMARK  239  A    between atoms: _615  and  _616
REMARK  240  A    between atoms: _621  and  _622
REMARK  241  A    between atoms: _624  and  _626
REMARK  242  A    between atoms: _626  and  _627
REMARK  243  A    between atoms: _626  and  _629
REMARK  244  A    between atoms: _632  and  _634
REMARK  245  A    between atoms: _634  and  _635
REMARK  246  A    between atoms: _634  and  _637
REMARK  247  A    between atoms: _637  and  _638
REMARK  248  A    between atoms: _643  and  _645
REMARK  249  A    between atoms: _645  and  _646
REMARK  250  A    between atoms: _649  and  _651
REMARK  251  A    between atoms: _651  and  _652
REMARK  252  A    between atoms: _651  and  _654
REMARK  253  A    between atoms: _654  and  _655
REMARK  254  A    between atoms: _655  and  _656
REMARK  255  A    between atoms: _656  and  _657
REMARK  256  A    between atoms: _666  and  _668
REMARK  257  A    between atoms: _668  and  _669
REMARK  258  A    between atoms: _668  and  _671
REMARK  259  A    between atoms: _671  and  _672
REMARK  260  A    between atoms: _675  and  _677
REMARK  261  A    between atoms: _677  and  _678
REMARK  262  A    between atoms: _677  and  _680
REMARK  263  A    between atoms: _680  and  _681
REMARK  264  A    between atoms: _684  and  _686
REMARK  265  A    between atoms: _686  and  _687
REMARK  266  A    between atoms: _686  and  _689
REMARK  267  A    between atoms: _689  and  _690
REMARK                            x       y       z     vdW  Elec       q    Type
REMARK                         _______ _______ _______ _____ _____    ______ ____
ROOT
ATOM      1  CA  ASN A   1      -3.324  23.264   5.355  0.00  0.00    +0.154 C 
ENDROOT
BRANCH   1   2
ATOM      2  C   ASN A   1      -3.356  23.861   6.745  0.00  0.00    +0.239 C 
ATOM      3  O   ASN A   1      -2.273  24.008   7.377  0.00  0.00    -0.274 OA
ATOM      4  N   GLY A   2      -4.506  24.200   7.272  0.00  0.00    -0.297 N 
ATOM      5  H   GLY A   2      -5.351  24.106   6.673  0.00  0.00    +0.150 HD
BRANCH   4   6
ATOM      6  CA  GLY A   2      -4.698  24.693   8.613  0.00  0.00    +0.163 C 
BRANCH   6   7
ATOM      7  C   GLY A   2      -4.345  26.088   8.951  0.00  0.00    +0.229 C 
ATOM      8  O   GLY A   2      -5.015  26.808   9.743  0.00  0.00    -0.286 OA
ENDBRANCH   6   7
ENDBRANCH   4   6
ENDBRANCH   1   2
BRANCH   1   9
ATOM      9  N   ASN A   1      -4.537  23.469   4.567  0.00  0.00    -0.238 NA
ATOM     10  H   ASN A   1      -4.889  24.437   4.426  0.00  0.00    +0.142 HD
ENDBRANCH   1   9
BRANCH   1  11
ATOM     11  CB  ASN A   1      -2.140  23.796   4.530  0.00  0.00    +0.111 C 
BRANCH  11  12
ATOM     12  CG  ASN A   1      -0.793  23.201   4.958  0.00  0.00    +0.221 C 
ATOM     13  OD1 ASN A   1      -0.682  21.996   5.261  0.00  0.00    -0.275 OA
ATOM     14  ND2 ASN A   1       0.248  24.048   4.965  0.00  0.00    -0.329 N 
ATOM     15 HD21 ASN A   1       1.194  23.707   5.231  0.00  0.00    +0.145 HD
ATOM     16 HD22 ASN A   1       0.109  25.045   4.705  0.00  0.00    +0.145 HD
ENDBRANCH  11  12
ENDBRANCH   1  11
TORSDOF 6
REMARK  Name = ../refined-set-2016/2olb/2olb_pocket.pdb
REMARK  267 active torsions:
REMARK  status: ('A' for Active; 'I' for Inactive)
REMARK    1  A    between atoms: _1  and  _3
REMARK    2  A    between atoms: _3  and  _4
REMARK    3  A    between atoms: _3  and  _6
REMARK    4  A    between atoms: _6  and  _7
REMARK    5  A    between atoms: _12  and  _14
REMARK    6  A    between atoms: _14  and  _15
REMARK    7  A    between atoms: _17  and  _19
REMARK    8  A    between atoms: _19  and  _20
REMARK    9  A    between atoms: _19  and  _22
REMARK   10  A    between atoms: _22  and  _23
REMARK   11  A    between atoms: _23  and  _24
REMARK   12  A    between atoms: _29  and  _31
REMARK   13  A    between atoms: _31  and  _32
REMARK   14  A    between atoms: _31  and  _34
REMARK   15  A    between atoms: _34  and  _35
REMARK   16  A    between atoms: _38  and  _40
REMARK   17  A    between atoms: _40  and  _41
REMARK   18  A    between atoms: _40  and  _43
REMARK   19  A    between atoms: _43  and  _44
REMARK   20  A    between atoms: _44  and  _45
REMARK   21  A    between atoms: _48  and  _50
REMARK   22  A    between atoms: _50  and  _51
REMARK   23  A    between atoms: _53  and  _55
REMARK   24  A    between atoms: _55  and  _56
REMARK   25  A    between atoms: _55  and  _58
REMARK   26  A    between atoms: _62  and  _63
REMARK   27  A    between atoms: _68  and  _70
REMARK   28  A    between atoms: _70  and  _71
REMARK   29  A    between atoms: _70  and  _73
REMARK   30  A    between atoms: _73  and  _74
REMARK   31  A    between atoms: _74  and  _75
REMARK   32  A    between atoms: _78  and  _80
REMARK   33  A    between atoms: _80  and  _81
REMARK   34  A    between atoms: _80  and  _83
REMARK   35  A    between atoms: _83  and  _84
REMARK   36  A    between atoms: _86  and  _88
REMARK   37  A    between atoms: _88  and  _89
REMARK   38  A    between atoms: _88  and  _91
REMARK   39  A    between atoms: _91  and  _92
REMARK   40  A    between atoms: _97  and  _99
REMARK   41  A    between atoms: _99  and  _100
REMARK   42  A    between atoms: _99  and  _102
REMARK   43  A    between atoms: _102  and  _103
REMARK   44  A    between atoms: _103  and  _104
REMARK   45  A    between atoms: _104  and  _105
REMARK   46  A    between atoms: _115  and  _116
REMARK   47  A    between atoms: _121  and  _123
REMARK   48  A    between atoms: _123  and  _124
REMARK   49  A    between atoms: _123  and  _126
REMARK   50  A    between atoms: _126  and  _127
REMARK   51  A    between atoms: _132  and  _133
REMARK   52  A    between atoms: _135  and  _137
REMARK   53  A    between atoms: _137  and  _138
REMARK   54  A    between atoms: _137  and  _140
REMARK   55  A    between atoms: _140  and  _141
REMARK   56  A    between atoms: _146  and  _147
REMARK   57  A    between atoms: _149  and  _151
REMARK   58  A    between atoms: _151  and  _152
REMARK   59  A    between atoms: _151  and  _154
REMARK   60  A    between atoms: _157  and  _159
REMARK   61  A    between atoms: _159  and  _160
REMARK   62  A    between atoms: _159  and  _162
REMARK   63  A    between atoms: _162  and  _163
REMARK   64  A    between atoms: _169  and  _170
REMARK   65  A    between atoms: _175  and  _177
REMARK   66  A    between atoms: _177  and  _178
REMARK   67  A    between atoms: _177  and  _180
REMARK   68  A    between atoms: _180  and  _181
REMARK   69  A    between atoms: _183  and  _185
REMARK   70  A    between atoms: _185  and  _186
REMARK   71  A    between atoms: _185  and  _188
REMARK   72  A    between atoms: _188  and  _189
REMARK   73  A    between atoms: _189  and  _190
REMARK   74  A    between atoms: _193  and  _195
REMARK   75  A    between atoms: _195  and  _196
REMARK   76  A    between atoms: _195  and  _198
REMARK   77  A    between atoms: _198  and  _199
REMARK   78  A    between atoms: _204  and  _205
REMARK   79  A    between atoms: _207  and  _209
REMARK   80  A    between atoms: _209  and  _210
REMARK   81  A    between atoms: _209  and  _212
REMARK   82  A    between atoms: _212  and  _213
REMARK   83  A    between atoms: _218  and  _220
REMARK   84  A    between atoms: _220  and  _221
REMARK   85  A    between atoms: _220  and  _223
REMARK   86  A    between atoms: _223  and  _224
REMARK   87  A    between atoms: _229  and  _231
REMARK   88  A    between atoms: _231  and  _232
REMARK   89  A    between atoms: _231  and  _234
REMARK   90  A    between atoms: _234  and  _235
REMARK   91  A    between atoms: _235  and  _236
REMARK   92  A    between atoms: _238  and  _240
REMARK   93  A    between atoms: _240  and  _241
REMARK   94  A    between atoms: _240  and  _243
REMARK   95  A    between atoms: _243  and  _244
REMARK   96  A    between atoms: _249  and  _250
REMARK   97  A    between atoms: _252  and  _254
REMARK   98  A    between atoms: _254  and  _255
REMARK   99  A    between atoms: _254  and  _257
REMARK  100  A    between atoms: _257  and  _258
REMARK  101  A    between atoms: _261  and  _263
REMARK  102  A    between atoms: _263  and  _264
REMARK  103  A    between atoms: _263  and  _266
REMARK  104  A    between atoms: _266  and  _267
REMARK  105  A    between atoms: _267  and  _484
REMARK  106  A    between atoms: _268  and  _270
REMARK  107  A    between atoms: _270  and  _271
REMARK  108  A    between atoms: _270  and  _273
REMARK  109  A    between atoms: _273  and  _274
REMARK  110  A    between atoms: _277  and  _279
REMARK  111  A    between atoms: _279  and  _280
REMARK  112  A    between atoms: _279  and  _282
REMARK  113  A    between atoms: _282  and  _283
REMARK  114  A    between atoms: _288  and  _289
REMARK  115  A    between atoms: _291  and  _293
REMARK  116  A    between atoms: _293  and  _294
REMARK  117  A    between atoms: _293  and  _296
REMARK  118  A    between atoms: _296  and  _297
REMARK  119  A    between atoms: _302  and  _303
REMARK  120  A    between atoms: _305  and  _307
REMARK  121  A    between atoms: _307  and  _308
REMARK  122  A    between atoms: _307  and  _310
REMARK  123  A    between atoms: _310  and  _311
REMARK  124  A    between atoms: _311  and  _312
REMARK  125  A    between atoms: _315  and  _317
REMARK  126  A    between atoms: _317  and  _318
REMARK  127  A    between atoms: _317  and  _320
REMARK  128  A    between atoms: _320  and  _321
REMARK  129  A    between atoms: _326  and  _327
REMARK  130  A    between atoms: _329  and  _331
REMARK  131  A    between atoms: _331  and  _332
REMARK  132  A    between atoms: _331  and  _334
REMARK  133  A    between atoms: _334  and  _335
REMARK  134  A    between atoms: _340  and  _342
REMARK  135  A    between atoms: _342  and  _343
REMARK  136  A    between atoms: _342  and  _345
REMARK  137  A    between atoms: _345  and  _346
REMARK  138  A    between atoms: _349  and  _351
REMARK  139  A    between atoms: _351  and  _352
REMARK  140  A    between atoms: _351  and  _354
REMARK  141  A    between atoms: _354  and  _355
REMARK  142  A    between atoms: _360  and  _362
REMARK  143  A    between atoms: _362  and  _363
REMARK  144  A    between atoms: _362  and  _365
REMARK  145  A    between atoms: _365  and  _366
REMARK  146  A    between atoms: _376  and  _378
REMARK  147  A    between atoms: _378  and  _379
REMARK  148  A    between atoms: _378  and  _381
REMARK  149  A    between atoms: _381  and  _382
REMARK  150  A    between atoms: _388  and  _390
REMARK  151  A    between atoms: _390  and  _391
REMARK  152  A    between atoms: _390  and  _393
REMARK  153  A    between atoms: _393  and  _394
REMARK  154  A    between atoms: _397  and  _399
REMARK  155  A    between atoms: _399  and  _400
REMARK  156  A    between atoms: _399  and  _402
REMARK  157  A    between atoms: _402  and  _403
REMARK  158  A    between atoms: _406  and  _408
REMARK  159  A    between atoms: _408  and  _409
REMARK  160  A    between atoms: _408  and  _411
REMARK  161  A    between atoms: _411  and  _412
REMARK  162  A    between atoms: _412  and  _413
REMARK  163  A    between atoms: _413  and  _414
REMARK  164  A    between atoms: _423  and  _425
REMARK  165  A    between atoms: _425  and  _426
REMARK  166  A    between atoms: _425  and  _428
REMARK  167  A    between atoms: _428  and  _429
REMARK  168  A    between atoms: _434  and  _436
REMARK  169  A    between atoms: _436  and  _437
REMARK  170  A    between atoms: _436  and  _439
REMARK  171  A    between atoms: _439  and  _440
REMARK  172  A    between atoms: _440  and  _441
REMARK  173  A    between atoms: _441  and  _442
REMARK  174  A    between atoms: _451  and  _453
REMARK  175  A    between atoms: _453  and  _454
REMARK  176  A    between atoms: _457  and  _459
REMARK  177  A    between atoms: _459  and  _460
REMARK  178  A    between atoms: _462  and  _464
REMARK  179  A    between atoms: _464  and  _465
REMARK  180  A    between atoms: _464  and  _467
REMARK  181  A    between atoms: _467  and  _468
REMARK  182  A    between atoms: _478  and  _480
REMARK  183  A    between atoms: _480  and  _481
REMARK  184  A    between atoms: _480  and  _483
REMARK  185  A    between atoms: _483  and  _484
REMARK  186  A    between atoms: _485  and  _487
REMARK  187  A    between atoms: _487  and  _488
REMARK  188  A    between atoms: _491  and  _493
REMARK  189  A    between atoms: _493  and  _494
REMARK  190  A    between atoms: _493  and  _496
REMARK  191  A    between atoms: _496  and  _497
REMARK  192  A    between atoms: _500  and  _502
REMARK  193  A    between atoms: _502  and  _503
REMARK  194  A    between atoms: _502  and  _505
REMARK  195  A    between atoms: _505  and  _506
REMARK  196  A    between atoms: _511  and  _512
REMARK  197  A    between atoms: _514  and  _516
REMARK  198  A    between atoms: _516  and  _517
REMARK  199  A    between atoms: _516  and  _519
REMARK  200  A    between atoms: _519  and  _520
REMARK  201  A    between atoms: _522  and  _524
REMARK  202  A    between atoms: _524  and  _525
REMARK  203  A    between atoms: _524  and  _527
REMARK  204  A    between atoms: _527  and  _528
REMARK  205  A    between atoms: _534  and  _536
REMARK  206  A    between atoms: _536  and  _537
REMARK  207  A    between atoms: _536  and  _539
REMARK  208  A    between atoms: _539  and  _540
REMARK  209  A    between atoms: _543  and  _545
REMARK  210  A    between atoms: _545  and  _546
REMARK  211  A    between atoms: _545  and  _548
REMARK  212  A    between atoms: _548  and  _549
REMARK  213  A    between atoms: _551  and  _553
REMARK  214  A    between atoms: _553  and  _554
REMARK  215  A    between atoms: _553  and  _556
REMARK  216  A    between atoms: _556  and  _557
REMARK  217  A    between atoms: _559  and  _561
REMARK  218  A    between atoms: _561  and  _562
REMARK  219  A    between atoms: _561  and  _564
REMARK  220  A    between atoms: _564  and  _565
REMARK  221  A    between atoms: _570  and  _572
REMARK  222  A    between atoms: _572  and  _573
REMARK  223  A    between atoms: _572  and  _575
REMARK  224  A    between atoms: _575  and  _576
REMARK  225  A    between atoms: _581  and  _583
REMARK  226  A    between atoms: _583  and  _584
REMARK  227  A    between atoms: _583  and  _586
REMARK  228  A    between atoms: _586  and  _587
REMARK  229  A    between atoms: _590  and  _592
REMARK  230  A    between atoms: _592  and  _593
REMARK  231  A    between atoms: _596  and  _598
REMARK  232  A    between atoms: _598  and  _599
REMARK  233  A    between atoms: _598  and  _601
REMARK  234  A    between atoms: _601  and  _602
REMARK  235  A    between atoms: _607  and  _608
REMARK  236  A    between atoms: _610  and  _612
REMARK  237  A    between atoms: _612  and  _613
REMARK  238  A    between atoms: _612  and  _615
REMARK  239  A    between atoms: _615  and  _616
REMARK  240  A    between atoms: _621  and  _622
REMARK  241  A    between atoms: _624  and  _626
REMARK  242  A    between atoms: _626  and  _627
REMARK  243  A    between atoms: _626  and  _629
REMARK  244  A    between atoms: _632  and  _634
REMARK  245  A    between atoms: _634  and  _635
REMARK  246  A    between atoms: _634  and  _637
REMARK  247  A    between atoms: _637  and  _638
REMARK  248  A    between atoms: _643  and  _645
REMARK  249  A    between atoms: _645  and  _646
REMARK  250  A    between atoms: _649  and  _651
REMARK  251  A    between atoms: _651  and  _652
REMARK  252  A    between atoms: _651  and  _654
REMARK  253  A    between atoms: _654  and  _655
REMARK  254  A    between atoms: _655  and  _656
REMARK  255  A    between atoms: _656  and  _657
REMARK  256  A    between atoms: _666  and  _668
REMARK  257  A    between atoms: _668  and  _669
REMARK  258  A    between atoms: _668  and  _671
REMARK  259  A    between atoms: _671  and  _672
REMARK  260  A    between atoms: _675  and  _677
REMARK  261  A    between atoms: _677  and  _678
REMARK  262  A    between atoms: _677  and  _680
REMARK  263  A    between atoms: _680  and  _681
REMARK  264  A    between atoms: _684  and  _686
REMARK  265  A    between atoms: _686  and  _687
REMARK  266  A    between atoms: _686  and  _689
REMARK  267  A    between atoms: _689  and  _690
REMARK                            x       y       z     vdW  Elec       q    Type
REMARK                         _______ _______ _______ _____ _____    ______ ____
ROOT
ATOM      1  CB  GLN A   1       6.766  28.788  10.445  0.00  0.00    +0.035 C 
ENDROOT
BRANCH   1   2
ATOM      2  CA  GLN A   1       5.904  29.655   9.483  0.00  0.00    +0.134 C 
BRANCH   2   3
ATOM      3  N   GLN A   1       4.901  28.810   8.847  0.00  0.00    -0.239 NA
ATOM      4  H   GLN A   1       4.803  27.808   9.109  0.00  0.00    +0.142 HD
ENDBRANCH   2   3
BRANCH   2   5
ATOM      5  C   GLN A   1       6.916  30.082   8.415  0.00  0.00    +0.224 C 
ATOM      6  O   GLN A   1       7.417  31.231   8.426  0.00  0.00    -0.287 OA
ENDBRANCH   2   5
ENDBRANCH   1   2
BRANCH   1   7
ATOM      7  CG  GLN A   1       6.029  28.361  11.711  0.00  0.00    +0.087 C 
BRANCH   7   8
ATOM      8  CD  GLN A   1       6.943  27.395  12.484  0.00  0.00    +0.219 C 
ATOM      9  NE2 GLN A   1       7.533  27.823  13.589  0.00  0.00    -0.329 N 
ATOM     10 HE21 GLN A   1       8.153  27.185  14.128  0.00  0.00    +0.145 HD
ATOM     11 HE22 GLN A   1       7.376  28.797  13.919  0.00  0.00    +0.145 HD
ATOM     12  OE1 GLN A   1       7.086  26.248  12.035  0.00  0.00    -0.275 OA
ENDBRANCH   7   8
ENDBRANCH   1   7
TORSDOF 5
REMARK  Name = ../refined-set-2016/2olb/2olb_pocket.pdb
REMARK  267 active torsions:
REMARK  status: ('A' for Active; 'I' for Inactive)
REMARK    1  A    between atoms: _1  and  _3
REMARK    2  A    between atoms: _3  and  _4
REMARK    3  A    between atoms: _3  and  _6
REMARK    4  A    between atoms: _6  and  _7
REMARK    5  A    between atoms: _12  and  _14
REMARK    6  A    between atoms: _14  and  _15
REMARK    7  A    between atoms: _17  and  _19
REMARK    8  A    between atoms: _19  and  _20
REMARK    9  A    between atoms: _19  and  _22
REMARK   10  A    between atoms: _22  and  _23
REMARK   11  A    between atoms: _23  and  _24
REMARK   12  A    between atoms: _29  and  _31
REMARK   13  A    between atoms: _31  and  _32
REMARK   14  A    between atoms: _31  and  _34
REMARK   15  A    between atoms: _34  and  _35
REMARK   16  A    between atoms: _38  and  _40
REMARK   17  A    between atoms: _40  and  _41
REMARK   18  A    between atoms: _40  and  _43
REMARK   19  A    between atoms: _43  and  _44
REMARK   20  A    between atoms: _44  and  _45
REMARK   21  A    between atoms: _48  and  _50
REMARK   22  A    between atoms: _50  and  _51
REMARK   23  A    between atoms: _53  and  _55
REMARK   24  A    between atoms: _55  and  _56
REMARK   25  A    between atoms: _55  and  _58
REMARK   26  A    between atoms: _62  and  _63
REMARK   27  A    between atoms: _68  and  _70
REMARK   28  A    between atoms: _70  and  _71
REMARK   29  A    between atoms: _70  and  _73
REMARK   30  A    between atoms: _73  and  _74
REMARK   31  A    between atoms: _74  and  _75
REMARK   32  A    between atoms: _78  and  _80
REMARK   33  A    between atoms: _80  and  _81
REMARK   34  A    between atoms: _80  and  _83
REMARK   35  A    between atoms: _83  and  _84
REMARK   36  A    between atoms: _86  and  _88
REMARK   37  A    between atoms: _88  and  _89
REMARK   38  A    between atoms: _88  and  _91
REMARK   39  A    between atoms: _91  and  _92
REMARK   40  A    between atoms: _97  and  _99
REMARK   41  A    between atoms: _99  and  _100
REMARK   42  A    between atoms: _99  and  _102
REMARK   43  A    between atoms: _102  and  _103
REMARK   44  A    between atoms: _103  and  _104
REMARK   45  A    between atoms: _104  and  _105
REMARK   46  A    between atoms: _115  and  _116
REMARK   47  A    between atoms: _121  and  _123
REMARK   48  A    between atoms: _123  and  _124
REMARK   49  A    between atoms: _123  and  _126
REMARK   50  A    between atoms: _126  and  _127
REMARK   51  A    between atoms: _132  and  _133
REMARK   52  A    between atoms: _135  and  _137
REMARK   53  A    between atoms: _137  and  _138
REMARK   54  A    between atoms: _137  and  _140
REMARK   55  A    between atoms: _140  and  _141
REMARK   56  A    between atoms: _146  and  _147
REMARK   57  A    between atoms: _149  and  _151
REMARK   58  A    between atoms: _151  and  _152
REMARK   59  A    between atoms: _151  and  _154
REMARK   60  A    between atoms: _157  and  _159
REMARK   61  A    between atoms: _159  and  _160
REMARK   62  A    between atoms: _159  and  _162
REMARK   63  A    between atoms: _162  and  _163
REMARK   64  A    between atoms: _169  and  _170
REMARK   65  A    between atoms: _175  and  _177
REMARK   66  A    between atoms: _177  and  _178
REMARK   67  A    between atoms: _177  and  _180
REMARK   68  A    between atoms: _180  and  _181
REMARK   69  A    between atoms: _183  and  _185
REMARK   70  A    between atoms: _185  and  _186
REMARK   71  A    between atoms: _185  and  _188
REMARK   72  A    between atoms: _188  and  _189
REMARK   73  A    between atoms: _189  and  _190
REMARK   74  A    between atoms: _193  and  _195
REMARK   75  A    between atoms: _195  and  _196
REMARK   76  A    between atoms: _195  and  _198
REMARK   77  A    between atoms: _198  and  _199
REMARK   78  A    between atoms: _204  and  _205
REMARK   79  A    between atoms: _207  and  _209
REMARK   80  A    between atoms: _209  and  _210
REMARK   81  A    between atoms: _209  and  _212
REMARK   82  A    between atoms: _212  and  _213
REMARK   83  A    between atoms: _218  and  _220
REMARK   84  A    between atoms: _220  and  _221
REMARK   85  A    between atoms: _220  and  _223
REMARK   86  A    between atoms: _223  and  _224
REMARK   87  A    between atoms: _229  and  _231
REMARK   88  A    between atoms: _231  and  _232
REMARK   89  A    between atoms: _231  and  _234
REMARK   90  A    between atoms: _234  and  _235
REMARK   91  A    between atoms: _235  and  _236
REMARK   92  A    between atoms: _238  and  _240
REMARK   93  A    between atoms: _240  and  _241
REMARK   94  A    between atoms: _240  and  _243
REMARK   95  A    between atoms: _243  and  _244
REMARK   96  A    between atoms: _249  and  _250
REMARK   97  A    between atoms: _252  and  _254
REMARK   98  A    between atoms: _254  and  _255
REMARK   99  A    between atoms: _254  and  _257
REMARK  100  A    between atoms: _257  and  _258
REMARK  101  A    between atoms: _261  and  _263
REMARK  102  A    between atoms: _263  and  _264
REMARK  103  A    between atoms: _263  and  _266
REMARK  104  A    between atoms: _266  and  _267
REMARK  105  A    between atoms: _267  and  _484
REMARK  106  A    between atoms: _268  and  _270
REMARK  107  A    between atoms: _270  and  _271
REMARK  108  A    between atoms: _270  and  _273
REMARK  109  A    between atoms: _273  and  _274
REMARK  110  A    between atoms: _277  and  _279
REMARK  111  A    between atoms: _279  and  _280
REMARK  112  A    between atoms: _279  and  _282
REMARK  113  A    between atoms: _282  and  _283
REMARK  114  A    between atoms: _288  and  _289
REMARK  115  A    between atoms: _291  and  _293
REMARK  116  A    between atoms: _293  and  _294
REMARK  117  A    between atoms: _293  and  _296
REMARK  118  A    between atoms: _296  and  _297
REMARK  119  A    between atoms: _302  and  _303
REMARK  120  A    between atoms: _305  and  _307
REMARK  121  A    between atoms: _307  and  _308
REMARK  122  A    between atoms: _307  and  _310
REMARK  123  A    between atoms: _310  and  _311
REMARK  124  A    between atoms: _311  and  _312
REMARK  125  A    between atoms: _315  and  _317
REMARK  126  A    between atoms: _317  and  _318
REMARK  127  A    between atoms: _317  and  _320
REMARK  128  A    between atoms: _320  and  _321
REMARK  129  A    between atoms: _326  and  _327
REMARK  130  A    between atoms: _329  and  _331
REMARK  131  A    between atoms: _331  and  _332
REMARK  132  A    between atoms: _331  and  _334
REMARK  133  A    between atoms: _334  and  _335
REMARK  134  A    between atoms: _340  and  _342
REMARK  135  A    between atoms: _342  and  _343
REMARK  136  A    between atoms: _342  and  _345
REMARK  137  A    between atoms: _345  and  _346
REMARK  138  A    between atoms: _349  and  _351
REMARK  139  A    between atoms: _351  and  _352
REMARK  140  A    between atoms: _351  and  _354
REMARK  141  A    between atoms: _354  and  _355
REMARK  142  A    between atoms: _360  and  _362
REMARK  143  A    between atoms: _362  and  _363
REMARK  144  A    between atoms: _362  and  _365
REMARK  145  A    between atoms: _365  and  _366
REMARK  146  A    between atoms: _376  and  _378
REMARK  147  A    between atoms: _378  and  _379
REMARK  148  A    between atoms: _378  and  _381
REMARK  149  A    between atoms: _381  and  _382
REMARK  150  A    between atoms: _388  and  _390
REMARK  151  A    between atoms: _390  and  _391
REMARK  152  A    between atoms: _390  and  _393
REMARK  153  A    between atoms: _393  and  _394
REMARK  154  A    between atoms: _397  and  _399
REMARK  155  A    between atoms: _399  and  _400
REMARK  156  A    between atoms: _399  and  _402
REMARK  157  A    between atoms: _402  and  _403
REMARK  158  A    between atoms: _406  and  _408
REMARK  159  A    between atoms: _408  and  _409
REMARK  160  A    between atoms: _408  and  _411
REMARK  161  A    between atoms: _411  and  _412
REMARK  162  A    between atoms: _412  and  _413
REMARK  163  A    between atoms: _413  and  _414
REMARK  164  A    between atoms: _423  and  _425
REMARK  165  A    between atoms: _425  and  _426
REMARK  166  A    between atoms: _425  and  _428
REMARK  167  A    between atoms: _428  and  _429
REMARK  168  A    between atoms: _434  and  _436
REMARK  169  A    between atoms: _436  and  _437
REMARK  170  A    between atoms: _436  and  _439
REMARK  171  A    between atoms: _439  and  _440
REMARK  172  A    between atoms: _440  and  _441
REMARK  173  A    between atoms: _441  and  _442
REMARK  174  A    between atoms: _451  and  _453
REMARK  175  A    between atoms: _453  and  _454
REMARK  176  A    between atoms: _457  and  _459
REMARK  177  A    between atoms: _459  and  _460
REMARK  178  A    between atoms: _462  and  _464
REMARK  179  A    between atoms: _464  and  _465
REMARK  180  A    between atoms: _464  and  _467
REMARK  181  A    between atoms: _467  and  _468
REMARK  182  A    between atoms: _478  and  _480
REMARK  183  A    between atoms: _480  and  _481
REMARK  184  A    between atoms: _480  and  _483
REMARK  185  A    between atoms: _483  and  _484
REMARK  186  A    between atoms: _485  and  _487
REMARK  187  A    between atoms: _487  and  _488
REMARK  188  A    between atoms: _491  and  _493
REMARK  189  A    between atoms: _493  and  _494
REMARK  190  A    between atoms: _493  and  _496
REMARK  191  A    between atoms: _496  and  _497
REMARK  192  A    between atoms: _500  and  _502
REMARK  193  A    between atoms: _502  and  _503
REMARK  194  A    between atoms: _502  and  _505
REMARK  195  A    between atoms: _505  and  _506
REMARK  196  A    between atoms: _511  and  _512
REMARK  197  A    between atoms: _514  and  _516
REMARK  198  A    between atoms: _516  and  _517
REMARK  199  A    between atoms: _516  and  _519
REMARK  200  A    between atoms: _519  and  _520
REMARK  201  A    between atoms: _522  and  _524
REMARK  202  A    between atoms: _524  and  _525
REMARK  203  A    between atoms: _524  and  _527
REMARK  204  A    between atoms: _527  and  _528
REMARK  205  A    between atoms: _534  and  _536
REMARK  206  A    between atoms: _536  and  _537
REMARK  207  A    between atoms: _536  and  _539
REMARK  208  A    between atoms: _539  and  _540
REMARK  209  A    between atoms: _543  and  _545
REMARK  210  A    between atoms: _545  and  _546
REMARK  211  A    between atoms: _545  and  _548
REMARK  212  A    between atoms: _548  and  _549
REMARK  213  A    between atoms: _551  and  _553
REMARK  214  A    between atoms: _553  and  _554
REMARK  215  A    between atoms: _553  and  _556
REMARK  216  A    between atoms: _556  and  _557
REMARK  217  A    between atoms: _559  and  _561
REMARK  218  A    between atoms: _561  and  _562
REMARK  219  A    between atoms: _561  and  _564
REMARK  220  A    between atoms: _564  and  _565
REMARK  221  A    between atoms: _570  and  _572
REMARK  222  A    between atoms: _572  and  _573
REMARK  223  A    between atoms: _572  and  _575
REMARK  224  A    between atoms: _575  and  _576
REMARK  225  A    between atoms: _581  and  _583
REMARK  226  A    between atoms: _583  and  _584
REMARK  227  A    between atoms: _583  and  _586
REMARK  228  A    between atoms: _586  and  _587
REMARK  229  A    between atoms: _590  and  _592
REMARK  230  A    between atoms: _592  and  _593
REMARK  231  A    between atoms: _596  and  _598
REMARK  232  A    between atoms: _598  and  _599
REMARK  233  A    between atoms: _598  and  _601
REMARK  234  A    between atoms: _601  and  _602
REMARK  235  A    between atoms: _607  and  _608
REMARK  236  A    between atoms: _610  and  _612
REMARK  237  A    between atoms: _612  and  _613
REMARK  238  A    between atoms: _612  and  _615
REMARK  239  A    between atoms: _615  and  _616
REMARK  240  A    between atoms: _621  and  _622
REMARK  241  A    between atoms: _624  and  _626
REMARK  242  A    between atoms: _626  and  _627
REMARK  243  A    between atoms: _626  and  _629
REMARK  244  A    between atoms: _632  and  _634
REMARK  245  A    between atoms: _634  and  _635
REMARK  246  A    between atoms: _634  and  _637
REMARK  247  A    between atoms: _637  and  _638
REMARK  248  A    between atoms: _643  and  _645
REMARK  249  A    between atoms: _645  and  _646
REMARK  250  A    between atoms: _649  and  _651
REMARK  251  A    between atoms: _651  and  _652
REMARK  252  A    between atoms: _651  and  _654
REMARK  253  A    between atoms: _654  and  _655
REMARK  254  A    between atoms: _655  and  _656
REMARK  255  A    between atoms: _656  and  _657
REMARK  256  A    between atoms: _666  and  _668
REMARK  257  A    between atoms: _668  and  _669
REMARK  258  A    between atoms: _668  and  _671
REMARK  259  A    between atoms: _671  and  _672
REMARK  260  A    between atoms: _675  and  _677
REMARK  261  A    between atoms: _677  and  _678
REMARK  262  A    between atoms: _677  and  _680
REMARK  263  A    between atoms: _680  and  _681
REMARK  264  A    between atoms: _684  and  _686
REMARK  265  A    between atoms: _686  and  _687
REMARK  266  A    between atoms: _686  and  _689
REMARK  267  A    between atoms: _689  and  _690
REMARK                            x       y       z     vdW  Elec       q    Type
REMARK                         _______ _______ _______ _____ _____    ______ ____
ROOT
ATOM      1  C   VAL A   4       2.274  20.722   9.297  0.00  0.00    +0.244 C 
ATOM      2  N   PRO A   5       1.677  21.896   9.353  0.00  0.00    -0.272 N 
ATOM      3  CD  PRO A   5       1.176  22.552  10.566  0.00  0.00    +0.094 C 
ATOM      4  CG  PRO A   5       0.124  23.520   9.953  0.00  0.00    +0.024 C 
ATOM      5  CB  PRO A   5       0.730  23.994   8.632  0.00  0.00    +0.031 C 
ATOM      6  CA  PRO A   5       1.378  22.677   8.154  0.00  0.00    +0.152 C 
ATOM      7  O   VAL A   4       2.633  20.241   8.170  0.00  0.00    -0.273 OA
ENDROOT
BRANCH   6   8
ATOM      8  C   PRO A   5       2.642  22.940   7.350  0.00  0.00    +0.241 C 
ATOM      9  N   GLU A   6       3.746  23.300   8.052  0.00  0.00    -0.297 N 
ATOM     10  H   GLU A   6       3.693  23.394   9.086  0.00  0.00    +0.150 HD
ATOM     11  O   PRO A   5       2.640  22.819   6.121  0.00  0.00    -0.273 OA
BRANCH   9  12
ATOM     12  CA  GLU A   6       5.014  23.557   7.359  0.00  0.00    +0.149 C 
BRANCH  12  13
ATOM     13  C   GLU A   6       5.577  22.303   6.685  0.00  0.00    +0.241 C 
ATOM     14  N   SER A   7       5.479  21.160   7.372  0.00  0.00    -0.295 N 
ATOM     15  H   SER A   7       5.020  21.160   8.305  0.00  0.00    +0.150 HD
ATOM     16  O   GLU A   6       6.074  22.336   5.547  0.00  0.00    -0.273 OA
BRANCH  14  17
ATOM     17  CA  SER A   7       6.015  19.897   6.823  0.00  0.00    +0.178 C 
BRANCH  17  18
ATOM     18  C   SER A   7       5.228  19.400   5.667  0.00  0.00    +0.243 C 
ATOM     19  N   ASN A   8       3.897  19.730   5.675  0.00  0.00    -0.298 N 
ATOM     20  H   ASN A   8       3.503  20.303   6.448  0.00  0.00    +0.150 HD
ATOM     21  O   SER A   7       5.739  18.750   4.765  0.00  0.00    -0.273 OA
BRANCH  19  22
ATOM     22  CA  ASN A   8       3.025  19.262   4.570  0.00  0.00    +0.146 C 
BRANCH  22  23
ATOM     23  C   ASN A   8       3.520  19.811   3.244  0.00  0.00    +0.227 C 
ATOM     24  O   ASN A   8       3.596  19.091   2.236  0.00  0.00    -0.286 OA
ENDBRANCH  22  23
BRANCH  22  25
ATOM     25  CB  ASN A   8       1.575  19.707   4.845  0.00  0.00    +0.112 C 
BRANCH  25  26
ATOM     26  CG  ASN A   8       0.858  18.886   5.905  0.00  0.00    +0.222 C 
ATOM     27  ND2 ASN A   8      -0.229  19.424   6.452  0.00  0.00    -0.329 N 
ATOM     28 HD21 ASN A   8      -0.756  18.903   7.181  0.00  0.00    +0.145 HD
ATOM     29 HD22 ASN A   8      -0.551  20.366   6.150  0.00  0.00    +0.145 HD
ATOM     30  OD1 ASN A   8       1.283  17.765   6.231  0.00  0.00    -0.275 OA
ENDBRANCH  25  26
ENDBRANCH  22  25
ENDBRANCH  19  22
ENDBRANCH  17  18
BRANCH  17  31
ATOM     31  CB  SER A   7       6.073  18.889   7.975  0.00  0.00    +0.166 C 
BRANCH  31  32
ATOM     32  OG  SER A   7       6.999  19.402   8.970  0.00  0.00    -0.380 OA
ATOM     33  H   SER A   7       6.677  20.279   9.297  0.00  0.00    +0.211 HD
ENDBRANCH  31  32
ENDBRANCH  17  31
ENDBRANCH  14  17
ENDBRANCH  12  13
BRANCH  12  34
ATOM     34  CB  GLU A   6       6.070  24.073   8.368  0.00  0.00    +0.041 C 
BRANCH  34  35
ATOM     35  CG  GLU A   6       5.757  25.384   9.014  0.00  0.00    +0.116 C 
BRANCH  35  36
ATOM     36  CD  GLU A   6       4.562  25.449   9.923  0.00  0.00    +0.365 C 
ATOM     37  OE2 GLU A   6       4.191  24.438  10.597  0.00  0.00    -0.246 OA
ATOM     38  OE1 GLU A   6       3.909  26.514  10.025  0.00  0.00    -0.246 OA
ENDBRANCH  35  36
ENDBRANCH  34  35
ENDBRANCH  12  34
ENDBRANCH   9  12
ENDBRANCH   6   8
BRANCH   1  39
ATOM     39  CA  VAL A   4       2.591  19.966  10.553  0.00  0.00    +0.149 C 
BRANCH  39  41
ATOM     40  C   GLY A   3       4.497  21.330  11.329  0.00  0.00    +0.243 C 
ATOM     41  N   VAL A   4       3.261  20.842  11.517  0.00  0.00    -0.297 N 
ATOM     42  H   VAL A   4       2.755  21.098  12.389  0.00  0.00    +0.150 HD
ATOM     43  O   GLY A   3       5.161  21.067  10.307  0.00  0.00    -0.273 OA
BRANCH  40  44
ATOM     44  CA  GLY A   3       4.980  22.202  12.442  0.00  0.00    +0.176 C 
BRANCH  44  47
ATOM     45  C   GLU A   2       7.265  22.284  13.264  0.00  0.00    +0.241 C 
ATOM     46  O   GLU A   2       7.087  21.244  13.974  0.00  0.00    -0.273 OA
ATOM     47  N   GLY A   3       6.302  22.799  12.453  0.00  0.00    -0.295 N 
ATOM     48  H   GLY A   3       6.512  23.616  11.845  0.00  0.00    +0.150 HD
BRANCH  45  49
ATOM     49  CA  GLU A   2       8.597  23.010  13.320  0.00  0.00    +0.149 C 
BRANCH  49  51
ATOM     50  C   ILE A   1       9.982  24.110  11.648  0.00  0.00    +0.238 C 
ATOM     51  N   GLU A   2       8.764  24.020  12.252  0.00  0.00    -0.297 N 
ATOM     52  H   GLU A   2       7.978  24.641  11.972  0.00  0.00    +0.150 HD
ATOM     53  O   ILE A   1      10.958  23.415  11.936  0.00  0.00    -0.274 OA
BRANCH  50  54
ATOM     54  CA  ILE A   1      10.048  25.135  10.554  0.00  0.00    +0.145 C 
BRANCH  54  55
ATOM     55  CB  ILE A   1       9.453  24.581   9.238  0.00  0.00    +0.025 C 
ATOM     56  CG2 ILE A   1       9.321  25.659   8.154  0.00  0.00    +0.002 C 
BRANCH  55  57
ATOM     57  CG1 ILE A   1      10.267  23.395   8.703  0.00  0.00    +0.002 C 
ATOM     58  CD1 ILE A   1       9.554  22.584   7.627  0.00  0.00    +0.000 C 
ENDBRANCH  55  57
ENDBRANCH  54  55
BRANCH  54  59
ATOM     59  N   ILE A   1      11.428  25.602  10.285  0.00  0.00    -0.238 NA
ATOM     60  H   ILE A   1      12.161  24.934   9.971  0.00  0.00    +0.142 HD
ENDBRANCH  54  59
ENDBRANCH  50  54
ENDBRANCH  49  51
BRANCH  49  61
ATOM     61  CB  GLU A   2       8.669  23.705  14.713  0.00  0.00    +0.041 C 
BRANCH  61  62
ATOM     62  CG  GLU A   2       9.182  22.734  15.827  0.00  0.00    +0.116 C 
BRANCH  62  63
ATOM     63  CD  GLU A   2       9.204  23.407  17.168  0.00  0.00    +0.365 C 
ATOM     64  OE2 GLU A   2       9.650  22.745  18.144  0.00  0.00    -0.246 OA
ATOM     65  OE1 GLU A   2       8.777  24.583  17.284  0.00  0.00    -0.246 OA
ENDBRANCH  62  63
ENDBRANCH  61  62
ENDBRANCH  49  61
ENDBRANCH  45  49
ENDBRANCH  44  47
ENDBRANCH  40  44
ENDBRANCH  39  41
BRANCH  39  66
ATOM     66  CB  VAL A   4       1.418  19.221  11.214  0.00  0.00    +0.027 C 
ATOM     67  CG2 VAL A   4       1.999  18.193  12.196  0.00  0.00    +0.002 C 
ATOM     68  CG1 VAL A   4       0.529  18.565  10.162  0.00  0.00    +0.002 C 
ENDBRANCH  39  66
ENDBRANCH   1  39
TORSDOF 28
REMARK  Name = ../refined-set-2016/2olb/2olb_pocket.pdb
REMARK  267 active torsions:
REMARK  status: ('A' for Active; 'I' for Inactive)
REMARK    1  A    between atoms: _1  and  _3
REMARK    2  A    between atoms: _3  and  _4
REMARK    3  A    between atoms: _3  and  _6
REMARK    4  A    between atoms: _6  and  _7
REMARK    5  A    between atoms: _12  and  _14
REMARK    6  A    between atoms: _14  and  _15
REMARK    7  A    between atoms: _17  and  _19
REMARK    8  A    between atoms: _19  and  _20
REMARK    9  A    between atoms: _19  and  _22
REMARK   10  A    between atoms: _22  and  _23
REMARK   11  A    between atoms: _23  and  _24
REMARK   12  A    between atoms: _29  and  _31
REMARK   13  A    between atoms: _31  and  _32
REMARK   14  A    between atoms: _31  and  _34
REMARK   15  A    between atoms: _34  and  _35
REMARK   16  A    between atoms: _38  and  _40
REMARK   17  A    between atoms: _40  and  _41
REMARK   18  A    between atoms: _40  and  _43
REMARK   19  A    between atoms: _43  and  _44
REMARK   20  A    between atoms: _44  and  _45
REMARK   21  A    between atoms: _48  and  _50
REMARK   22  A    between atoms: _50  and  _51
REMARK   23  A    between atoms: _53  and  _55
REMARK   24  A    between atoms: _55  and  _56
REMARK   25  A    between atoms: _55  and  _58
REMARK   26  A    between atoms: _62  and  _63
REMARK   27  A    between atoms: _68  and  _70
REMARK   28  A    between atoms: _70  and  _71
REMARK   29  A    between atoms: _70  and  _73
REMARK   30  A    between atoms: _73  and  _74
REMARK   31  A    between atoms: _74  and  _75
REMARK   32  A    between atoms: _78  and  _80
REMARK   33  A    between atoms: _80  and  _81
REMARK   34  A    between atoms: _80  and  _83
REMARK   35  A    between atoms: _83  and  _84
REMARK   36  A    between atoms: _86  and  _88
REMARK   37  A    between atoms: _88  and  _89
REMARK   38  A    between atoms: _88  and  _91
REMARK   39  A    between atoms: _91  and  _92
REMARK   40  A    between atoms: _97  and  _99
REMARK   41  A    between atoms: _99  and  _100
REMARK   42  A    between atoms: _99  and  _102
REMARK   43  A    between atoms: _102  and  _103
REMARK   44  A    between atoms: _103  and  _104
REMARK   45  A    between atoms: _104  and  _105
REMARK   46  A    between atoms: _115  and  _116
REMARK   47  A    between atoms: _121  and  _123
REMARK   48  A    between atoms: _123  and  _124
REMARK   49  A    between atoms: _123  and  _126
REMARK   50  A    between atoms: _126  and  _127
REMARK   51  A    between atoms: _132  and  _133
REMARK   52  A    between atoms: _135  and  _137
REMARK   53  A    between atoms: _137  and  _138
REMARK   54  A    between atoms: _137  and  _140
REMARK   55  A    between atoms: _140  and  _141
REMARK   56  A    between atoms: _146  and  _147
REMARK   57  A    between atoms: _149  and  _151
REMARK   58  A    between atoms: _151  and  _152
REMARK   59  A    between atoms: _151  and  _154
REMARK   60  A    between atoms: _157  and  _159
REMARK   61  A    between atoms: _159  and  _160
REMARK   62  A    between atoms: _159  and  _162
REMARK   63  A    between atoms: _162  and  _163
REMARK   64  A    between atoms: _169  and  _170
REMARK   65  A    between atoms: _175  and  _177
REMARK   66  A    between atoms: _177  and  _178
REMARK   67  A    between atoms: _177  and  _180
REMARK   68  A    between atoms: _180  and  _181
REMARK   69  A    between atoms: _183  and  _185
REMARK   70  A    between atoms: _185  and  _186
REMARK   71  A    between atoms: _185  and  _188
REMARK   72  A    between atoms: _188  and  _189
REMARK   73  A    between atoms: _189  and  _190
REMARK   74  A    between atoms: _193  and  _195
REMARK   75  A    between atoms: _195  and  _196
REMARK   76  A    between atoms: _195  and  _198
REMARK   77  A    between atoms: _198  and  _199
REMARK   78  A    between atoms: _204  and  _205
REMARK   79  A    between atoms: _207  and  _209
REMARK   80  A    between atoms: _209  and  _210
REMARK   81  A    between atoms: _209  and  _212
REMARK   82  A    between atoms: _212  and  _213
REMARK   83  A    between atoms: _218  and  _220
REMARK   84  A    between atoms: _220  and  _221
REMARK   85  A    between atoms: _220  and  _223
REMARK   86  A    between atoms: _223  and  _224
REMARK   87  A    between atoms: _229  and  _231
REMARK   88  A    between atoms: _231  and  _232
REMARK   89  A    between atoms: _231  and  _234
REMARK   90  A    between atoms: _234  and  _235
REMARK   91  A    between atoms: _235  and  _236
REMARK   92  A    between atoms: _238  and  _240
REMARK   93  A    between atoms: _240  and  _241
REMARK   94  A    between atoms: _240  and  _243
REMARK   95  A    between atoms: _243  and  _244
REMARK   96  A    between atoms: _249  and  _250
REMARK   97  A    between atoms: _252  and  _254
REMARK   98  A    between atoms: _254  and  _255
REMARK   99  A    between atoms: _254  and  _257
REMARK  100  A    between atoms: _257  and  _258
REMARK  101  A    between atoms: _261  and  _263
REMARK  102  A    between atoms: _263  and  _264
REMARK  103  A    between atoms: _263  and  _266
REMARK  104  A    between atoms: _266  and  _267
REMARK  105  A    between atoms: _267  and  _484
REMARK  106  A    between atoms: _268  and  _270
REMARK  107  A    between atoms: _270  and  _271
REMARK  108  A    between atoms: _270  and  _273
REMARK  109  A    between atoms: _273  and  _274
REMARK  110  A    between atoms: _277  and  _279
REMARK  111  A    between atoms: _279  and  _280
REMARK  112  A    between atoms: _279  and  _282
REMARK  113  A    between atoms: _282  and  _283
REMARK  114  A    between atoms: _288  and  _289
REMARK  115  A    between atoms: _291  and  _293
REMARK  116  A    between atoms: _293  and  _294
REMARK  117  A    between atoms: _293  and  _296
REMARK  118  A    between atoms: _296  and  _297
REMARK  119  A    between atoms: _302  and  _303
REMARK  120  A    between atoms: _305  and  _307
REMARK  121  A    between atoms: _307  and  _308
REMARK  122  A    between atoms: _307  and  _310
REMARK  123  A    between atoms: _310  and  _311
REMARK  124  A    between atoms: _311  and  _312
REMARK  125  A    between atoms: _315  and  _317
REMARK  126  A    between atoms: _317  and  _318
REMARK  127  A    between atoms: _317  and  _320
REMARK  128  A    between atoms: _320  and  _321
REMARK  129  A    between atoms: _326  and  _327
REMARK  130  A    between atoms: _329  and  _331
REMARK  131  A    between atoms: _331  and  _332
REMARK  132  A    between atoms: _331  and  _334
REMARK  133  A    between atoms: _334  and  _335
REMARK  134  A    between atoms: _340  and  _342
REMARK  135  A    between atoms: _342  and  _343
REMARK  136  A    between atoms: _342  and  _345
REMARK  137  A    between atoms: _345  and  _346
REMARK  138  A    between atoms: _349  and  _351
REMARK  139  A    between atoms: _351  and  _352
REMARK  140  A    between atoms: _351  and  _354
REMARK  141  A    between atoms: _354  and  _355
REMARK  142  A    between atoms: _360  and  _362
REMARK  143  A    between atoms: _362  and  _363
REMARK  144  A    between atoms: _362  and  _365
REMARK  145  A    between atoms: _365  and  _366
REMARK  146  A    between atoms: _376  and  _378
REMARK  147  A    between atoms: _378  and  _379
REMARK  148  A    between atoms: _378  and  _381
REMARK  149  A    between atoms: _381  and  _382
REMARK  150  A    between atoms: _388  and  _390
REMARK  151  A    between atoms: _390  and  _391
REMARK  152  A    between atoms: _390  and  _393
REMARK  153  A    between atoms: _393  and  _394
REMARK  154  A    between atoms: _397  and  _399
REMARK  155  A    between atoms: _399  and  _400
REMARK  156  A    between atoms: _399  and  _402
REMARK  157  A    between atoms: _402  and  _403
REMARK  158  A    between atoms: _406  and  _408
REMARK  159  A    between atoms: _408  and  _409
REMARK  160  A    between atoms: _408  and  _411
REMARK  161  A    between atoms: _411  and  _412
REMARK  162  A    between atoms: _412  and  _413
REMARK  163  A    between atoms: _413  and  _414
REMARK  164  A    between atoms: _423  and  _425
REMARK  165  A    between atoms: _425  and  _426
REMARK  166  A    between atoms: _425  and  _428
REMARK  167  A    between atoms: _428  and  _429
REMARK  168  A    between atoms: _434  and  _436
REMARK  169  A    between atoms: _436  and  _437
REMARK  170  A    between atoms: _436  and  _439
REMARK  171  A    between atoms: _439  and  _440
REMARK  172  A    between atoms: _440  and  _441
REMARK  173  A    between atoms: _441  and  _442
REMARK  174  A    between atoms: _451  and  _453
REMARK  175  A    between atoms: _453  and  _454
REMARK  176  A    between atoms: _457  and  _459
REMARK  177  A    between atoms: _459  and  _460
REMARK  178  A    between atoms: _462  and  _464
REMARK  179  A    between atoms: _464  and  _465
REMARK  180  A    between atoms: _464  and  _467
REMARK  181  A    between atoms: _467  and  _468
REMARK  182  A    between atoms: _478  and  _480
REMARK  183  A    between atoms: _480  and  _481
REMARK  184  A    between atoms: _480  and  _483
REMARK  185  A    between atoms: _483  and  _484
REMARK  186  A    between atoms: _485  and  _487
REMARK  187  A    between atoms: _487  and  _488
REMARK  188  A    between atoms: _491  and  _493
REMARK  189  A    between atoms: _493  and  _494
REMARK  190  A    between atoms: _493  and  _496
REMARK  191  A    between atoms: _496  and  _497
REMARK  192  A    between atoms: _500  and  _502
REMARK  193  A    between atoms: _502  and  _503
REMARK  194  A    between atoms: _502  and  _505
REMARK  195  A    between atoms: _505  and  _506
REMARK  196  A    between atoms: _511  and  _512
REMARK  197  A    between atoms: _514  and  _516
REMARK  198  A    between atoms: _516  and  _517
REMARK  199  A    between atoms: _516  and  _519
REMARK  200  A    between atoms: _519  and  _520
REMARK  201  A    between atoms: _522  and  _524
REMARK  202  A    between atoms: _524  and  _525
REMARK  203  A    between atoms: _524  and  _527
REMARK  204  A    between atoms: _527  and  _528
REMARK  205  A    between atoms: _534  and  _536
REMARK  206  A    between atoms: _536  and  _537
REMARK  207  A    between atoms: _536  and  _539
REMARK  208  A    between atoms: _539  and  _540
REMARK  209  A    between atoms: _543  and  _545
REMARK  210  A    between atoms: _545  and  _546
REMARK  211  A    between atoms: _545  and  _548
REMARK  212  A    between atoms: _548  and  _549
REMARK  213  A    between atoms: _551  and  _553
REMARK  214  A    between atoms: _553  and  _554
REMARK  215  A    between atoms: _553  and  _556
REMARK  216  A    between atoms: _556  and  _557
REMARK  217  A    between atoms: _559  and  _561
REMARK  218  A    between atoms: _561  and  _562
REMARK  219  A    between atoms: _561  and  _564
REMARK  220  A    between atoms: _564  and  _565
REMARK  221  A    between atoms: _570  and  _572
REMARK  222  A    between atoms: _572  and  _573
REMARK  223  A    between atoms: _572  and  _575
REMARK  224  A    between atoms: _575  and  _576
REMARK  225  A    between atoms: _581  and  _583
REMARK  226  A    between atoms: _583  and  _584
REMARK  227  A    between atoms: _583  and  _586
REMARK  228  A    between atoms: _586  and  _587
REMARK  229  A    between atoms: _590  and  _592
REMARK  230  A    between atoms: _592  and  _593
REMARK  231  A    between atoms: _596  and  _598
REMARK  232  A    between atoms: _598  and  _599
REMARK  233  A    between atoms: _598  and  _601
REMARK  234  A    between atoms: _601  and  _602
REMARK  235  A    between atoms: _607  and  _608
REMARK  236  A    between atoms: _610  and  _612
REMARK  237  A    between atoms: _612  and  _613
REMARK  238  A    between atoms: _612  and  _615
REMARK  239  A    between atoms: _615  and  _616
REMARK  240  A    between atoms: _621  and  _622
REMARK  241  A    between atoms: _624  and  _626
REMARK  242  A    between atoms: _626  and  _627
REMARK  243  A    between atoms: _626  and  _629
REMARK  244  A    between atoms: _632  and  _634
REMARK  245  A    between atoms: _634  and  _635
REMARK  246  A    between atoms: _634  and  _637
REMARK  247  A    between atoms: _637  and  _638
REMARK  248  A    between atoms: _643  and  _645
REMARK  249  A    between atoms: _645  and  _646
REMARK  250  A    between atoms: _649  and  _651
REMARK  251  A    between atoms: _651  and  _652
REMARK  252  A    between atoms: _651  and  _654
REMARK  253  A    between atoms: _654  and  _655
REMARK  254  A    between atoms: _655  and  _656
REMARK  255  A    between atoms: _656  and  _657
REMARK  256  A    between atoms: _666  and  _668
REMARK  257  A    between atoms: _668  and  _669
REMARK  258  A    between atoms: _668  and  _671
REMARK  259  A    between atoms: _671  and  _672
REMARK  260  A    between atoms: _675  and  _677
REMARK  261  A    between atoms: _677  and  _678
REMARK  262  A    between atoms: _677  and  _680
REMARK  263  A    between atoms: _680  and  _681
REMARK  264  A    between atoms: _684  and  _686
REMARK  265  A    between atoms: _686  and  _687
REMARK  266  A    between atoms: _686  and  _689
REMARK  267  A    between atoms: _689  and  _690
REMARK                            x       y       z     vdW  Elec       q    Type
REMARK                         _______ _______ _______ _____ _____    ______ ____
ROOT
ATOM      1  NE  ARG A   1       4.798  14.860   4.149  0.00  0.00    -0.265 N 
ATOM      2  CZ  ARG A   1       4.253  15.530   5.167  0.00  0.00    +0.342 C 
ATOM      3  NH2 ARG A   1       4.966  15.860   6.229  0.00  0.00    -0.292 N 
ATOM      4 HH21 ARG A   1       4.522  16.382   7.011  0.00  0.00    +0.255 HD
ATOM      5 HH22 ARG A   1       5.971  15.598   6.283  0.00  0.00    +0.255 HD
ATOM      6  NH1 ARG A   1       2.941  15.819   5.090  0.00  0.00    -0.292 N 
ATOM      7 HH11 ARG A   1       2.477  16.340   5.862  0.00  0.00    +0.255 HD
ATOM      8 HH12 ARG A   1       2.391  15.522   4.259  0.00  0.00    +0.255 HD
ATOM      9  HE  ARG A   1       4.175  14.588   3.362  0.00  0.00    +0.259 HD
ENDROOT
BRANCH   1  10
ATOM     10  CD  ARG A   1       6.234  14.473   4.058  0.00  0.00    +0.174 C 
BRANCH  10  11
ATOM     11  CG  ARG A   1       7.009  15.738   3.615  0.00  0.00    +0.045 C 
BRANCH  11  12
ATOM     12  CB  ARG A   1       6.528  16.235   2.268  0.00  0.00    +0.029 C 
BRANCH  12  13
ATOM     13  CA  ARG A   1       7.538  17.226   1.653  0.00  0.00    +0.133 C 
BRANCH  13  14
ATOM     14  N   ARG A   1       7.407  18.522   2.290  0.00  0.00    -0.239 NA
ATOM     15  H   ARG A   1       6.656  18.656   2.997  0.00  0.00    +0.142 HD
ENDBRANCH  13  14
BRANCH  13  16
ATOM     16  C   ARG A   1       7.409  17.287   0.129  0.00  0.00    +0.224 C 
ATOM     17  O   ARG A   1       8.029  16.447  -0.584  0.00  0.00    -0.287 OA
ENDBRANCH  13  16
ENDBRANCH  12  13
ENDBRANCH  11  12
ENDBRANCH  10  11
ENDBRANCH   1  10
TORSDOF 6
REMARK  Name = ../refined-set-2016/2olb/2olb_pocket.pdb
REMARK  267 active torsions:
REMARK  status: ('A' for Active; 'I' for Inactive)
REMARK    1  A    between atoms: _1  and  _3
REMARK    2  A    between atoms: _3  and  _4
REMARK    3  A    between atoms: _3  and  _6
REMARK    4  A    between atoms: _6  and  _7
REMARK    5  A    between atoms: _12  and  _14
REMARK    6  A    between atoms: _14  and  _15
REMARK    7  A    between atoms: _17  and  _19
REMARK    8  A    between atoms: _19  and  _20
REMARK    9  A    between atoms: _19  and  _22
REMARK   10  A    between atoms: _22  and  _23
REMARK   11  A    between atoms: _23  and  _24
REMARK   12  A    between atoms: _29  and  _31
REMARK   13  A    between atoms: _31  and  _32
REMARK   14  A    between atoms: _31  and  _34
REMARK   15  A    between atoms: _34  and  _35
REMARK   16  A    between atoms: _38  and  _40
REMARK   17  A    between atoms: _40  and  _41
REMARK   18  A    between atoms: _40  and  _43
REMARK   19  A    between atoms: _43  and  _44
REMARK   20  A    between atoms: _44  and  _45
REMARK   21  A    between atoms: _48  and  _50
REMARK   22  A    between atoms: _50  and  _51
REMARK   23  A    between atoms: _53  and  _55
REMARK   24  A    between atoms: _55  and  _56
REMARK   25  A    between atoms: _55  and  _58
REMARK   26  A    between atoms: _62  and  _63
REMARK   27  A    between atoms: _68  and  _70
REMARK   28  A    between atoms: _70  and  _71
REMARK   29  A    between atoms: _70  and  _73
REMARK   30  A    between atoms: _73  and  _74
REMARK   31  A    between atoms: _74  and  _75
REMARK   32  A    between atoms: _78  and  _80
REMARK   33  A    between atoms: _80  and  _81
REMARK   34  A    between atoms: _80  and  _83
REMARK   35  A    between atoms: _83  and  _84
REMARK   36  A    between atoms: _86  and  _88
REMARK   37  A    between atoms: _88  and  _89
REMARK   38  A    between atoms: _88  and  _91
REMARK   39  A    between atoms: _91  and  _92
REMARK   40  A    between atoms: _97  and  _99
REMARK   41  A    between atoms: _99  and  _100
REMARK   42  A    between atoms: _99  and  _102
REMARK   43  A    between atoms: _102  and  _103
REMARK   44  A    between atoms: _103  and  _104
REMARK   45  A    between atoms: _104  and  _105
REMARK   46  A    between atoms: _115  and  _116
REMARK   47  A    between atoms: _121  and  _123
REMARK   48  A    between atoms: _123  and  _124
REMARK   49  A    between atoms: _123  and  _126
REMARK   50  A    between atoms: _126  and  _127
REMARK   51  A    between atoms: _132  and  _133
REMARK   52  A    between atoms: _135  and  _137
REMARK   53  A    between atoms: _137  and  _138
REMARK   54  A    between atoms: _137  and  _140
REMARK   55  A    between atoms: _140  and  _141
REMARK   56  A    between atoms: _146  and  _147
REMARK   57  A    between atoms: _149  and  _151
REMARK   58  A    between atoms: _151  and  _152
REMARK   59  A    between atoms: _151  and  _154
REMARK   60  A    between atoms: _157  and  _159
REMARK   61  A    between atoms: _159  and  _160
REMARK   62  A    between atoms: _159  and  _162
REMARK   63  A    between atoms: _162  and  _163
REMARK   64  A    between atoms: _169  and  _170
REMARK   65  A    between atoms: _175  and  _177
REMARK   66  A    between atoms: _177  and  _178
REMARK   67  A    between atoms: _177  and  _180
REMARK   68  A    between atoms: _180  and  _181
REMARK   69  A    between atoms: _183  and  _185
REMARK   70  A    between atoms: _185  and  _186
REMARK   71  A    between atoms: _185  and  _188
REMARK   72  A    between atoms: _188  and  _189
REMARK   73  A    between atoms: _189  and  _190
REMARK   74  A    between atoms: _193  and  _195
REMARK   75  A    between atoms: _195  and  _196
REMARK   76  A    between atoms: _195  and  _198
REMARK   77  A    between atoms: _198  and  _199
REMARK   78  A    between atoms: _204  and  _205
REMARK   79  A    between atoms: _207  and  _209
REMARK   80  A    between atoms: _209  and  _210
REMARK   81  A    between atoms: _209  and  _212
REMARK   82  A    between atoms: _212  and  _213
REMARK   83  A    between atoms: _218  and  _220
REMARK   84  A    between atoms: _220  and  _221
REMARK   85  A    between atoms: _220  and  _223
REMARK   86  A    between atoms: _223  and  _224
REMARK   87  A    between atoms: _229  and  _231
REMARK   88  A    between atoms: _231  and  _232
REMARK   89  A    between atoms: _231  and  _234
REMARK   90  A    between atoms: _234  and  _235
REMARK   91  A    between atoms: _235  and  _236
REMARK   92  A    between atoms: _238  and  _240
REMARK   93  A    between atoms: _240  and  _241
REMARK   94  A    between atoms: _240  and  _243
REMARK   95  A    between atoms: _243  and  _244
REMARK   96  A    between atoms: _249  and  _250
REMARK   97  A    between atoms: _252  and  _254
REMARK   98  A    between atoms: _254  and  _255
REMARK   99  A    between atoms: _254  and  _257
REMARK  100  A    between atoms: _257  and  _258
REMARK  101  A    between atoms: _261  and  _263
REMARK  102  A    between atoms: _263  and  _264
REMARK  103  A    between atoms: _263  and  _266
REMARK  104  A    between atoms: _266  and  _267
REMARK  105  A    between atoms: _267  and  _484
REMARK  106  A    between atoms: _268  and  _270
REMARK  107  A    between atoms: _270  and  _271
REMARK  108  A    between atoms: _270  and  _273
REMARK  109  A    between atoms: _273  and  _274
REMARK  110  A    between atoms: _277  and  _279
REMARK  111  A    between atoms: _279  and  _280
REMARK  112  A    between atoms: _279  and  _282
REMARK  113  A    between atoms: _282  and  _283
REMARK  114  A    between atoms: _288  and  _289
REMARK  115  A    between atoms: _291  and  _293
REMARK  116  A    between atoms: _293  and  _294
REMARK  117  A    between atoms: _293  and  _296
REMARK  118  A    between atoms: _296  and  _297
REMARK  119  A    between atoms: _302  and  _303
REMARK  120  A    between atoms: _305  and  _307
REMARK  121  A    between atoms: _307  and  _308
REMARK  122  A    between atoms: _307  and  _310
REMARK  123  A    between atoms: _310  and  _311
REMARK  124  A    between atoms: _311  and  _312
REMARK  125  A    between atoms: _315  and  _317
REMARK  126  A    between atoms: _317  and  _318
REMARK  127  A    between atoms: _317  and  _320
REMARK  128  A    between atoms: _320  and  _321
REMARK  129  A    between atoms: _326  and  _327
REMARK  130  A    between atoms: _329  and  _331
REMARK  131  A    between atoms: _331  and  _332
REMARK  132  A    between atoms: _331  and  _334
REMARK  133  A    between atoms: _334  and  _335
REMARK  134  A    between atoms: _340  and  _342
REMARK  135  A    between atoms: _342  and  _343
REMARK  136  A    between atoms: _342  and  _345
REMARK  137  A    between atoms: _345  and  _346
REMARK  138  A    between atoms: _349  and  _351
REMARK  139  A    between atoms: _351  and  _352
REMARK  140  A    between atoms: _351  and  _354
REMARK  141  A    between atoms: _354  and  _355
REMARK  142  A    between atoms: _360  and  _362
REMARK  143  A    between atoms: _362  and  _363
REMARK  144  A    between atoms: _362  and  _365
REMARK  145  A    between atoms: _365  and  _366
REMARK  146  A    between atoms: _376  and  _378
REMARK  147  A    between atoms: _378  and  _379
REMARK  148  A    between atoms: _378  and  _381
REMARK  149  A    between atoms: _381  and  _382
REMARK  150  A    between atoms: _388  and  _390
REMARK  151  A    between atoms: _390  and  _391
REMARK  152  A    between atoms: _390  and  _393
REMARK  153  A    between atoms: _393  and  _394
REMARK  154  A    between atoms: _397  and  _399
REMARK  155  A    between atoms: _399  and  _400
REMARK  156  A    between atoms: _399  and  _402
REMARK  157  A    between atoms: _402  and  _403
REMARK  158  A    between atoms: _406  and  _408
REMARK  159  A    between atoms: _408  and  _409
REMARK  160  A    between atoms: _408  and  _411
REMARK  161  A    between atoms: _411  and  _412
REMARK  162  A    between atoms: _412  and  _413
REMARK  163  A    between atoms: _413  and  _414
REMARK  164  A    between atoms: _423  and  _425
REMARK  165  A    between atoms: _425  and  _426
REMARK  166  A    between atoms: _425  and  _428
REMARK  167  A    between atoms: _428  and  _429
REMARK  168  A    between atoms: _434  and  _436
REMARK  169  A    between atoms: _436  and  _437
REMARK  170  A    between atoms: _436  and  _439
REMARK  171  A    between atoms: _439  and  _440
REMARK  172  A    between atoms: _440  and  _441
REMARK  173  A    between atoms: _441  and  _442
REMARK  174  A    between atoms: _451  and  _453
REMARK  175  A    between atoms: _453  and  _454
REMARK  176  A    between atoms: _457  and  _459
REMARK  177  A    between atoms: _459  and  _460
REMARK  178  A    between atoms: _462  and  _464
REMARK  179  A    between atoms: _464  and  _465
REMARK  180  A    between atoms: _464  and  _467
REMARK  181  A    between atoms: _467  and  _468
REMARK  182  A    between atoms: _478  and  _480
REMARK  183  A    between atoms: _480  and  _481
REMARK  184  A    between atoms: _480  and  _483
REMARK  185  A    between atoms: _483  and  _484
REMARK  186  A    between atoms: _485  and  _487
REMARK  187  A    between atoms: _487  and  _488
REMARK  188  A    between atoms: _491  and  _493
REMARK  189  A    between atoms: _493  and  _494
REMARK  190  A    between atoms: _493  and  _496
REMARK  191  A    between atoms: _496  and  _497
REMARK  192  A    between atoms: _500  and  _502
REMARK  193  A    between atoms: _502  and  _503
REMARK  194  A    between atoms: _502  and  _505
REMARK  195  A    between atoms: _505  and  _506
REMARK  196  A    between atoms: _511  and  _512
REMARK  197  A    between atoms: _514  and  _516
REMARK  198  A    between atoms: _516  and  _517
REMARK  199  A    between atoms: _516  and  _519
REMARK  200  A    between atoms: _519  and  _520
REMARK  201  A    between atoms: _522  and  _524
REMARK  202  A    between atoms: _524  and  _525
REMARK  203  A    between atoms: _524  and  _527
REMARK  204  A    between atoms: _527  and  _528
REMARK  205  A    between atoms: _534  and  _536
REMARK  206  A    between atoms: _536  and  _537
REMARK  207  A    between atoms: _536  and  _539
REMARK  208  A    between atoms: _539  and  _540
REMARK  209  A    between atoms: _543  and  _545
REMARK  210  A    between atoms: _545  and  _546
REMARK  211  A    between atoms: _545  and  _548
REMARK  212  A    between atoms: _548  and  _549
REMARK  213  A    between atoms: _551  and  _553
REMARK  214  A    between atoms: _553  and  _554
REMARK  215  A    between atoms: _553  and  _556
REMARK  216  A    between atoms: _556  and  _557
REMARK  217  A    between atoms: _559  and  _561
REMARK  218  A    between atoms: _561  and  _562
REMARK  219  A    between atoms: _561  and  _564
REMARK  220  A    between atoms: _564  and  _565
REMARK  221  A    between atoms: _570  and  _572
REMARK  222  A    between atoms: _572  and  _573
REMARK  223  A    between atoms: _572  and  _575
REMARK  224  A    between atoms: _575  and  _576
REMARK  225  A    between atoms: _581  and  _583
REMARK  226  A    between atoms: _583  and  _584
REMARK  227  A    between atoms: _583  and  _586
REMARK  228  A    between atoms: _586  and  _587
REMARK  229  A    between atoms: _590  and  _592
REMARK  230  A    between atoms: _592  and  _593
REMARK  231  A    between atoms: _596  and  _598
REMARK  232  A    between atoms: _598  and  _599
REMARK  233  A    between atoms: _598  and  _601
REMARK  234  A    between atoms: _601  and  _602
REMARK  235  A    between atoms: _607  and  _608
REMARK  236  A    between atoms: _610  and  _612
REMARK  237  A    between atoms: _612  and  _613
REMARK  238  A    between atoms: _612  and  _615
REMARK  239  A    between atoms: _615  and  _616
REMARK  240  A    between atoms: _621  and  _622
REMARK  241  A    between atoms: _624  and  _626
REMARK  242  A    between atoms: _626  and  _627
REMARK  243  A    between atoms: _626  and  _629
REMARK  244  A    between atoms: _632  and  _634
REMARK  245  A    between atoms: _634  and  _635
REMARK  246  A    between atoms: _634  and  _637
REMARK  247  A    between atoms: _637  and  _638
REMARK  248  A    between atoms: _643  and  _645
REMARK  249  A    between atoms: _645  and  _646
REMARK  250  A    between atoms: _649  and  _651
REMARK  251  A    between atoms: _651  and  _652
REMARK  252  A    between atoms: _651  and  _654
REMARK  253  A    between atoms: _654  and  _655
REMARK  254  A    between atoms: _655  and  _656
REMARK  255  A    between atoms: _656  and  _657
REMARK  256  A    between atoms: _666  and  _668
REMARK  257  A    between atoms: _668  and  _669
REMARK  258  A    between atoms: _668  and  _671
REMARK  259  A    between atoms: _671  and  _672
REMARK  260  A    between atoms: _675  and  _677
REMARK  261  A    between atoms: _677  and  _678
REMARK  262  A    between atoms: _677  and  _680
REMARK  263  A    between atoms: _680  and  _681
REMARK  264  A    between atoms: _684  and  _686
REMARK  265  A    between atoms: _686  and  _687
REMARK  266  A    between atoms: _686  and  _689
REMARK  267  A    between atoms: _689  and  _690
REMARK                            x       y       z     vdW  Elec       q    Type
REMARK                         _______ _______ _______ _____ _____    ______ ____
ROOT
ATOM      1  CA  TYR A   2      14.953  21.553  14.986  0.00  0.00    +0.141 C 
ENDROOT
BRANCH   1   4
ATOM      2  C   PRO A   1      14.009  23.479  16.188  0.00  0.00    +0.239 C 
ATOM      3  O   PRO A   1      13.716  22.757  17.158  0.00  0.00    -0.274 OA
ATOM      4  N   TYR A   2      14.592  22.946  15.098  0.00  0.00    -0.298 N 
ATOM      5  H   TYR A   2      14.793  23.572  14.292  0.00  0.00    +0.150 HD
BRANCH   2   7
ATOM      6  N   PRO A   1      14.447  25.627  15.096  0.00  0.00    -0.210 NA
ATOM      7  CA  PRO A   1      13.710  24.987  16.170  0.00  0.00    +0.149 C 
ATOM      8  CB  PRO A   1      12.214  25.185  15.840  0.00  0.00    +0.028 C 
ATOM      9  CG  PRO A   1      12.231  25.500  14.353  0.00  0.00    +0.021 C 
ATOM     10  CD  PRO A   1      13.589  26.138  14.038  0.00  0.00    +0.089 C 
ENDBRANCH   2   7
ENDBRANCH   1   4
BRANCH   1  11
ATOM     11  C   TYR A   2      16.476  21.315  14.990  0.00  0.00    +0.227 C 
ATOM     12  O   TYR A   2      16.993  20.256  14.581  0.00  0.00    -0.286 OA
ENDBRANCH   1  11
BRANCH   1  13
ATOM     13  CB  TYR A   2      14.270  20.909  13.805  0.00  0.00    +0.054 C 
BRANCH  13  14
ATOM     14  CG  TYR A   2      13.013  20.133  14.098  0.00  0.00    -0.020 A 
ATOM     15  CD2 TYR A   2      13.058  18.891  14.721  0.00  0.00    -0.001 A 
ATOM     16  CE2 TYR A   2      11.901  18.156  14.928  0.00  0.00    +0.036 A 
ATOM     17  CZ  TYR A   2      10.671  18.672  14.527  0.00  0.00    +0.134 A 
ATOM     18  CE1 TYR A   2      10.605  19.903  13.918  0.00  0.00    +0.036 A 
ATOM     19  CD1 TYR A   2      11.762  20.638  13.709  0.00  0.00    -0.001 A 
BRANCH  17  20
ATOM     20  OH  TYR A   2       9.532  17.926  14.731  0.00  0.00    -0.506 OA
ATOM     21  HH  TYR A   2       9.771  17.076  15.179  0.00  0.00    +0.292 HD
ENDBRANCH  17  20
ENDBRANCH  13  14
ENDBRANCH   1  13
TORSDOF 6
REMARK  Name = ../refined-set-2016/2olb/2olb_pocket.pdb
REMARK  267 active torsions:
REMARK  status: ('A' for Active; 'I' for Inactive)
REMARK    1  A    between atoms: _1  and  _3
REMARK    2  A    between atoms: _3  and  _4
REMARK    3  A    between atoms: _3  and  _6
REMARK    4  A    between atoms: _6  and  _7
REMARK    5  A    between atoms: _12  and  _14
REMARK    6  A    between atoms: _14  and  _15
REMARK    7  A    between atoms: _17  and  _19
REMARK    8  A    between atoms: _19  and  _20
REMARK    9  A    between atoms: _19  and  _22
REMARK   10  A    between atoms: _22  and  _23
REMARK   11  A    between atoms: _23  and  _24
REMARK   12  A    between atoms: _29  and  _31
REMARK   13  A    between atoms: _31  and  _32
REMARK   14  A    between atoms: _31  and  _34
REMARK   15  A    between atoms: _34  and  _35
REMARK   16  A    between atoms: _38  and  _40
REMARK   17  A    between atoms: _40  and  _41
REMARK   18  A    between atoms: _40  and  _43
REMARK   19  A    between atoms: _43  and  _44
REMARK   20  A    between atoms: _44  and  _45
REMARK   21  A    between atoms: _48  and  _50
REMARK   22  A    between atoms: _50  and  _51
REMARK   23  A    between atoms: _53  and  _55
REMARK   24  A    between atoms: _55  and  _56
REMARK   25  A    between atoms: _55  and  _58
REMARK   26  A    between atoms: _62  and  _63
REMARK   27  A    between atoms: _68  and  _70
REMARK   28  A    between atoms: _70  and  _71
REMARK   29  A    between atoms: _70  and  _73
REMARK   30  A    between atoms: _73  and  _74
REMARK   31  A    between atoms: _74  and  _75
REMARK   32  A    between atoms: _78  and  _80
REMARK   33  A    between atoms: _80  and  _81
REMARK   34  A    between atoms: _80  and  _83
REMARK   35  A    between atoms: _83  and  _84
REMARK   36  A    between atoms: _86  and  _88
REMARK   37  A    between atoms: _88  and  _89
REMARK   38  A    between atoms: _88  and  _91
REMARK   39  A    between atoms: _91  and  _92
REMARK   40  A    between atoms: _97  and  _99
REMARK   41  A    between atoms: _99  and  _100
REMARK   42  A    between atoms: _99  and  _102
REMARK   43  A    between atoms: _102  and  _103
REMARK   44  A    between atoms: _103  and  _104
REMARK   45  A    between atoms: _104  and  _105
REMARK   46  A    between atoms: _115  and  _116
REMARK   47  A    between atoms: _121  and  _123
REMARK   48  A    between atoms: _123  and  _124
REMARK   49  A    between atoms: _123  and  _126
REMARK   50  A    between atoms: _126  and  _127
REMARK   51  A    between atoms: _132  and  _133
REMARK   52  A    between atoms: _135  and  _137
REMARK   53  A    between atoms: _137  and  _138
REMARK   54  A    between atoms: _137  and  _140
REMARK   55  A    between atoms: _140  and  _141
REMARK   56  A    between atoms: _146  and  _147
REMARK   57  A    between atoms: _149  and  _151
REMARK   58  A    between atoms: _151  and  _152
REMARK   59  A    between atoms: _151  and  _154
REMARK   60  A    between atoms: _157  and  _159
REMARK   61  A    between atoms: _159  and  _160
REMARK   62  A    between atoms: _159  and  _162
REMARK   63  A    between atoms: _162  and  _163
REMARK   64  A    between atoms: _169  and  _170
REMARK   65  A    between atoms: _175  and  _177
REMARK   66  A    between atoms: _177  and  _178
REMARK   67  A    between atoms: _177  and  _180
REMARK   68  A    between atoms: _180  and  _181
REMARK   69  A    between atoms: _183  and  _185
REMARK   70  A    between atoms: _185  and  _186
REMARK   71  A    between atoms: _185  and  _188
REMARK   72  A    between atoms: _188  and  _189
REMARK   73  A    between atoms: _189  and  _190
REMARK   74  A    between atoms: _193  and  _195
REMARK   75  A    between atoms: _195  and  _196
REMARK   76  A    between atoms: _195  and  _198
REMARK   77  A    between atoms: _198  and  _199
REMARK   78  A    between atoms: _204  and  _205
REMARK   79  A    between atoms: _207  and  _209
REMARK   80  A    between atoms: _209  and  _210
REMARK   81  A    between atoms: _209  and  _212
REMARK   82  A    between atoms: _212  and  _213
REMARK   83  A    between atoms: _218  and  _220
REMARK   84  A    between atoms: _220  and  _221
REMARK   85  A    between atoms: _220  and  _223
REMARK   86  A    between atoms: _223  and  _224
REMARK   87  A    between atoms: _229  and  _231
REMARK   88  A    between atoms: _231  and  _232
REMARK   89  A    between atoms: _231  and  _234
REMARK   90  A    between atoms: _234  and  _235
REMARK   91  A    between atoms: _235  and  _236
REMARK   92  A    between atoms: _238  and  _240
REMARK   93  A    between atoms: _240  and  _241
REMARK   94  A    between atoms: _240  and  _243
REMARK   95  A    between atoms: _243  and  _244
REMARK   96  A    between atoms: _249  and  _250
REMARK   97  A    between atoms: _252  and  _254
REMARK   98  A    between atoms: _254  and  _255
REMARK   99  A    between atoms: _254  and  _257
REMARK  100  A    between atoms: _257  and  _258
REMARK  101  A    between atoms: _261  and  _263
REMARK  102  A    between atoms: _263  and  _264
REMARK  103  A    between atoms: _263  and  _266
REMARK  104  A    between atoms: _266  and  _267
REMARK  105  A    between atoms: _267  and  _484
REMARK  106  A    between atoms: _268  and  _270
REMARK  107  A    between atoms: _270  and  _271
REMARK  108  A    between atoms: _270  and  _273
REMARK  109  A    between atoms: _273  and  _274
REMARK  110  A    between atoms: _277  and  _279
REMARK  111  A    between atoms: _279  and  _280
REMARK  112  A    between atoms: _279  and  _282
REMARK  113  A    between atoms: _282  and  _283
REMARK  114  A    between atoms: _288  and  _289
REMARK  115  A    between atoms: _291  and  _293
REMARK  116  A    between atoms: _293  and  _294
REMARK  117  A    between atoms: _293  and  _296
REMARK  118  A    between atoms: _296  and  _297
REMARK  119  A    between atoms: _302  and  _303
REMARK  120  A    between atoms: _305  and  _307
REMARK  121  A    between atoms: _307  and  _308
REMARK  122  A    between atoms: _307  and  _310
REMARK  123  A    between atoms: _310  and  _311
REMARK  124  A    between atoms: _311  and  _312
REMARK  125  A    between atoms: _315  and  _317
REMARK  126  A    between atoms: _317  and  _318
REMARK  127  A    between atoms: _317  and  _320
REMARK  128  A    between atoms: _320  and  _321
REMARK  129  A    between atoms: _326  and  _327
REMARK  130  A    between atoms: _329  and  _331
REMARK  131  A    between atoms: _331  and  _332
REMARK  132  A    between atoms: _331  and  _334
REMARK  133  A    between atoms: _334  and  _335
REMARK  134  A    between atoms: _340  and  _342
REMARK  135  A    between atoms: _342  and  _343
REMARK  136  A    between atoms: _342  and  _345
REMARK  137  A    between atoms: _345  and  _346
REMARK  138  A    between atoms: _349  and  _351
REMARK  139  A    between atoms: _351  and  _352
REMARK  140  A    between atoms: _351  and  _354
REMARK  141  A    between atoms: _354  and  _355
REMARK  142  A    between atoms: _360  and  _362
REMARK  143  A    between atoms: _362  and  _363
REMARK  144  A    between atoms: _362  and  _365
REMARK  145  A    between atoms: _365  and  _366
REMARK  146  A    between atoms: _376  and  _378
REMARK  147  A    between atoms: _378  and  _379
REMARK  148  A    between atoms: _378  and  _381
REMARK  149  A    between atoms: _381  and  _382
REMARK  150  A    between atoms: _388  and  _390
REMARK  151  A    between atoms: _390  and  _391
REMARK  152  A    between atoms: _390  and  _393
REMARK  153  A    between atoms: _393  and  _394
REMARK  154  A    between atoms: _397  and  _399
REMARK  155  A    between atoms: _399  and  _400
REMARK  156  A    between atoms: _399  and  _402
REMARK  157  A    between atoms: _402  and  _403
REMARK  158  A    between atoms: _406  and  _408
REMARK  159  A    between atoms: _408  and  _409
REMARK  160  A    between atoms: _408  and  _411
REMARK  161  A    between atoms: _411  and  _412
REMARK  162  A    between atoms: _412  and  _413
REMARK  163  A    between atoms: _413  and  _414
REMARK  164  A    between atoms: _423  and  _425
REMARK  165  A    between atoms: _425  and  _426
REMARK  166  A    between atoms: _425  and  _428
REMARK  167  A    between atoms: _428  and  _429
REMARK  168  A    between atoms: _434  and  _436
REMARK  169  A    between atoms: _436  and  _437
REMARK  170  A    between atoms: _436  and  _439
REMARK  171  A    between atoms: _439  and  _440
REMARK  172  A    between atoms: _440  and  _441
REMARK  173  A    between atoms: _441  and  _442
REMARK  174  A    between atoms: _451  and  _453
REMARK  175  A    between atoms: _453  and  _454
REMARK  176  A    between atoms: _457  and  _459
REMARK  177  A    between atoms: _459  and  _460
REMARK  178  A    between atoms: _462  and  _464
REMARK  179  A    between atoms: _464  and  _465
REMARK  180  A    between atoms: _464  and  _467
REMARK  181  A    between atoms: _467  and  _468
REMARK  182  A    between atoms: _478  and  _480
REMARK  183  A    between atoms: _480  and  _481
REMARK  184  A    between atoms: _480  and  _483
REMARK  185  A    between atoms: _483  and  _484
REMARK  186  A    between atoms: _485  and  _487
REMARK  187  A    between atoms: _487  and  _488
REMARK  188  A    between atoms: _491  and  _493
REMARK  189  A    between atoms: _493  and  _494
REMARK  190  A    between atoms: _493  and  _496
REMARK  191  A    between atoms: _496  and  _497
REMARK  192  A    between atoms: _500  and  _502
REMARK  193  A    between atoms: _502  and  _503
REMARK  194  A    between atoms: _502  and  _505
REMARK  195  A    between atoms: _505  and  _506
REMARK  196  A    between atoms: _511  and  _512
REMARK  197  A    between atoms: _514  and  _516
REMARK  198  A    between atoms: _516  and  _517
REMARK  199  A    between atoms: _516  and  _519
REMARK  200  A    between atoms: _519  and  _520
REMARK  201  A    between atoms: _522  and  _524
REMARK  202  A    between atoms: _524  and  _525
REMARK  203  A    between atoms: _524  and  _527
REMARK  204  A    between atoms: _527  and  _528
REMARK  205  A    between atoms: _534  and  _536
REMARK  206  A    between atoms: _536  and  _537
REMARK  207  A    between atoms: _536  and  _539
REMARK  208  A    between atoms: _539  and  _540
REMARK  209  A    between atoms: _543  and  _545
REMARK  210  A    between atoms: _545  and  _546
REMARK  211  A    between atoms: _545  and  _548
REMARK  212  A    between atoms: _548  and  _549
REMARK  213  A    between atoms: _551  and  _553
REMARK  214  A    between atoms: _553  and  _554
REMARK  215  A    between atoms: _553  and  _556
REMARK  216  A    between atoms: _556  and  _557
REMARK  217  A    between atoms: _559  and  _561
REMARK  218  A    between atoms: _561  and  _562
REMARK  219  A    between atoms: _561  and  _564
REMARK  220  A    between atoms: _564  and  _565
REMARK  221  A    between atoms: _570  and  _572
REMARK  222  A    between atoms: _572  and  _573
REMARK  223  A    between atoms: _572  and  _575
REMARK  224  A    between atoms: _575  and  _576
REMARK  225  A    between atoms: _581  and  _583
REMARK  226  A    between atoms: _583  and  _584
REMARK  227  A    between atoms: _583  and  _586
REMARK  228  A    between atoms: _586  and  _587
REMARK  229  A    between atoms: _590  and  _592
REMARK  230  A    between atoms: _592  and  _593
REMARK  231  A    between atoms: _596  and  _598
REMARK  232  A    between atoms: _598  and  _599
REMARK  233  A    between atoms: _598  and  _601
REMARK  234  A    between atoms: _601  and  _602
REMARK  235  A    between atoms: _607  and  _608
REMARK  236  A    between atoms: _610  and  _612
REMARK  237  A    between atoms: _612  and  _613
REMARK  238  A    between atoms: _612  and  _615
REMARK  239  A    between atoms: _615  and  _616
REMARK  240  A    between atoms: _621  and  _622
REMARK  241  A    between atoms: _624  and  _626
REMARK  242  A    between atoms: _626  and  _627
REMARK  243  A    between atoms: _626  and  _629
REMARK  244  A    between atoms: _632  and  _634
REMARK  245  A    between atoms: _634  and  _635
REMARK  246  A    between atoms: _634  and  _637
REMARK  247  A    between atoms: _637  and  _638
REMARK  248  A    between atoms: _643  and  _645
REMARK  249  A    between atoms: _645  and  _646
REMARK  250  A    between atoms: _649  and  _651
REMARK  251  A    between atoms: _651  and  _652
REMARK  252  A    between atoms: _651  and  _654
REMARK  253  A    between atoms: _654  and  _655
REMARK  254  A    between atoms: _655  and  _656
REMARK  255  A    between atoms: _656  and  _657
REMARK  256  A    between atoms: _666  and  _668
REMARK  257  A    between atoms: _668  and  _669
REMARK  258  A    between atoms: _668  and  _671
REMARK  259  A    between atoms: _671  and  _672
REMARK  260  A    between atoms: _675  and  _677
REMARK  261  A    between atoms: _677  and  _678
REMARK  262  A    between atoms: _677  and  _680
REMARK  263  A    between atoms: _680  and  _681
REMARK  264  A    between atoms: _684  and  _686
REMARK  265  A    between atoms: _686  and  _687
REMARK  266  A    between atoms: _686  and  _689
REMARK  267  A    between atoms: _689  and  _690
REMARK                            x       y       z     vdW  Elec       q    Type
REMARK                         _______ _______ _______ _____ _____    ______ ____
ROOT
ATOM      1  CG  TYR A   1      15.729  15.951  13.656  0.00  0.00    -0.020 A 
ATOM      2  CD2 TYR A   1      14.593  15.519  14.367  0.00  0.00    -0.001 A 
ATOM      3  CE2 TYR A   1      13.817  14.468  13.884  0.00  0.00    +0.036 A 
ATOM      4  CZ  TYR A   1      14.155  13.826  12.702  0.00  0.00    +0.134 A 
ATOM      5  CE1 TYR A   1      15.273  14.236  11.997  0.00  0.00    +0.036 A 
ATOM      6  CD1 TYR A   1      16.032  15.300  12.462  0.00  0.00    -0.001 A 
ENDROOT
BRANCH   4   7
ATOM      7  OH  TYR A   1      13.377  12.772  12.263  0.00  0.00    -0.506 OA
ATOM      8  HH  TYR A   1      13.017  12.981  11.365  0.00  0.00    +0.292 HD
ENDBRANCH   4   7
BRANCH   1   9
ATOM      9  CB  TYR A   1      16.540  17.105  14.193  0.00  0.00    +0.051 C 
BRANCH   9  10
ATOM     10  CA  TYR A   1      17.232  16.819  15.531  0.00  0.00    +0.137 C 
BRANCH  10  11
ATOM     11  N   TYR A   1      17.472  18.052  16.288  0.00  0.00    -0.239 NA
ATOM     12  H   TYR A   1      17.223  18.973  15.873  0.00  0.00    +0.142 HD
ENDBRANCH  10  11
BRANCH  10  13
ATOM     13  C   TYR A   1      18.578  16.079  15.327  0.00  0.00    +0.224 C 
ATOM     14  O   TYR A   1      18.589  14.840  15.309  0.00  0.00    -0.287 OA
ENDBRANCH  10  13
ENDBRANCH   9  10
ENDBRANCH   1   9
TORSDOF 5
REMARK  Name = ../refined-set-2016/2olb/2olb_pocket.pdb
REMARK  267 active torsions:
REMARK  status: ('A' for Active; 'I' for Inactive)
REMARK    1  A    between atoms: _1  and  _3
REMARK    2  A    between atoms: _3  and  _4
REMARK    3  A    between atoms: _3  and  _6
REMARK    4  A    between atoms: _6  and  _7
REMARK    5  A    between atoms: _12  and  _14
REMARK    6  A    between atoms: _14  and  _15
REMARK    7  A    between atoms: _17  and  _19
REMARK    8  A    between atoms: _19  and  _20
REMARK    9  A    between atoms: _19  and  _22
REMARK   10  A    between atoms: _22  and  _23
REMARK   11  A    between atoms: _23  and  _24
REMARK   12  A    between atoms: _29  and  _31
REMARK   13  A    between atoms: _31  and  _32
REMARK   14  A    between atoms: _31  and  _34
REMARK   15  A    between atoms: _34  and  _35
REMARK   16  A    between atoms: _38  and  _40
REMARK   17  A    between atoms: _40  and  _41
REMARK   18  A    between atoms: _40  and  _43
REMARK   19  A    between atoms: _43  and  _44
REMARK   20  A    between atoms: _44  and  _45
REMARK   21  A    between atoms: _48  and  _50
REMARK   22  A    between atoms: _50  and  _51
REMARK   23  A    between atoms: _53  and  _55
REMARK   24  A    between atoms: _55  and  _56
REMARK   25  A    between atoms: _55  and  _58
REMARK   26  A    between atoms: _62  and  _63
REMARK   27  A    between atoms: _68  and  _70
REMARK   28  A    between atoms: _70  and  _71
REMARK   29  A    between atoms: _70  and  _73
REMARK   30  A    between atoms: _73  and  _74
REMARK   31  A    between atoms: _74  and  _75
REMARK   32  A    between atoms: _78  and  _80
REMARK   33  A    between atoms: _80  and  _81
REMARK   34  A    between atoms: _80  and  _83
REMARK   35  A    between atoms: _83  and  _84
REMARK   36  A    between atoms: _86  and  _88
REMARK   37  A    between atoms: _88  and  _89
REMARK   38  A    between atoms: _88  and  _91
REMARK   39  A    between atoms: _91  and  _92
REMARK   40  A    between atoms: _97  and  _99
REMARK   41  A    between atoms: _99  and  _100
REMARK   42  A    between atoms: _99  and  _102
REMARK   43  A    between atoms: _102  and  _103
REMARK   44  A    between atoms: _103  and  _104
REMARK   45  A    between atoms: _104  and  _105
REMARK   46  A    between atoms: _115  and  _116
REMARK   47  A    between atoms: _121  and  _123
REMARK   48  A    between atoms: _123  and  _124
REMARK   49  A    between atoms: _123  and  _126
REMARK   50  A    between atoms: _126  and  _127
REMARK   51  A    between atoms: _132  and  _133
REMARK   52  A    between atoms: _135  and  _137
REMARK   53  A    between atoms: _137  and  _138
REMARK   54  A    between atoms: _137  and  _140
REMARK   55  A    between atoms: _140  and  _141
REMARK   56  A    between atoms: _146  and  _147
REMARK   57  A    between atoms: _149  and  _151
REMARK   58  A    between atoms: _151  and  _152
REMARK   59  A    between atoms: _151  and  _154
REMARK   60  A    between atoms: _157  and  _159
REMARK   61  A    between atoms: _159  and  _160
REMARK   62  A    between atoms: _159  and  _162
REMARK   63  A    between atoms: _162  and  _163
REMARK   64  A    between atoms: _169  and  _170
REMARK   65  A    between atoms: _175  and  _177
REMARK   66  A    between atoms: _177  and  _178
REMARK   67  A    between atoms: _177  and  _180
REMARK   68  A    between atoms: _180  and  _181
REMARK   69  A    between atoms: _183  and  _185
REMARK   70  A    between atoms: _185  and  _186
REMARK   71  A    between atoms: _185  and  _188
REMARK   72  A    between atoms: _188  and  _189
REMARK   73  A    between atoms: _189  and  _190
REMARK   74  A    between atoms: _193  and  _195
REMARK   75  A    between atoms: _195  and  _196
REMARK   76  A    between atoms: _195  and  _198
REMARK   77  A    between atoms: _198  and  _199
REMARK   78  A    between atoms: _204  and  _205
REMARK   79  A    between atoms: _207  and  _209
REMARK   80  A    between atoms: _209  and  _210
REMARK   81  A    between atoms: _209  and  _212
REMARK   82  A    between atoms: _212  and  _213
REMARK   83  A    between atoms: _218  and  _220
REMARK   84  A    between atoms: _220  and  _221
REMARK   85  A    between atoms: _220  and  _223
REMARK   86  A    between atoms: _223  and  _224
REMARK   87  A    between atoms: _229  and  _231
REMARK   88  A    between atoms: _231  and  _232
REMARK   89  A    between atoms: _231  and  _234
REMARK   90  A    between atoms: _234  and  _235
REMARK   91  A    between atoms: _235  and  _236
REMARK   92  A    between atoms: _238  and  _240
REMARK   93  A    between atoms: _240  and  _241
REMARK   94  A    between atoms: _240  and  _243
REMARK   95  A    between atoms: _243  and  _244
REMARK   96  A    between atoms: _249  and  _250
REMARK   97  A    between atoms: _252  and  _254
REMARK   98  A    between atoms: _254  and  _255
REMARK   99  A    between atoms: _254  and  _257
REMARK  100  A    between atoms: _257  and  _258
REMARK  101  A    between atoms: _261  and  _263
REMARK  102  A    between atoms: _263  and  _264
REMARK  103  A    between atoms: _263  and  _266
REMARK  104  A    between atoms: _266  and  _267
REMARK  105  A    between atoms: _267  and  _484
REMARK  106  A    between atoms: _268  and  _270
REMARK  107  A    between atoms: _270  and  _271
REMARK  108  A    between atoms: _270  and  _273
REMARK  109  A    between atoms: _273  and  _274
REMARK  110  A    between atoms: _277  and  _279
REMARK  111  A    between atoms: _279  and  _280
REMARK  112  A    between atoms: _279  and  _282
REMARK  113  A    between atoms: _282  and  _283
REMARK  114  A    between atoms: _288  and  _289
REMARK  115  A    between atoms: _291  and  _293
REMARK  116  A    between atoms: _293  and  _294
REMARK  117  A    between atoms: _293  and  _296
REMARK  118  A    between atoms: _296  and  _297
REMARK  119  A    between atoms: _302  and  _303
REMARK  120  A    between atoms: _305  and  _307
REMARK  121  A    between atoms: _307  and  _308
REMARK  122  A    between atoms: _307  and  _310
REMARK  123  A    between atoms: _310  and  _311
REMARK  124  A    between atoms: _311  and  _312
REMARK  125  A    between atoms: _315  and  _317
REMARK  126  A    between atoms: _317  and  _318
REMARK  127  A    between atoms: _317  and  _320
REMARK  128  A    between atoms: _320  and  _321
REMARK  129  A    between atoms: _326  and  _327
REMARK  130  A    between atoms: _329  and  _331
REMARK  131  A    between atoms: _331  and  _332
REMARK  132  A    between atoms: _331  and  _334
REMARK  133  A    between atoms: _334  and  _335
REMARK  134  A    between atoms: _340  and  _342
REMARK  135  A    between atoms: _342  and  _343
REMARK  136  A    between atoms: _342  and  _345
REMARK  137  A    between atoms: _345  and  _346
REMARK  138  A    between atoms: _349  and  _351
REMARK  139  A    between atoms: _351  and  _352
REMARK  140  A    between atoms: _351  and  _354
REMARK  141  A    between atoms: _354  and  _355
REMARK  142  A    between atoms: _360  and  _362
REMARK  143  A    between atoms: _362  and  _363
REMARK  144  A    between atoms: _362  and  _365
REMARK  145  A    between atoms: _365  and  _366
REMARK  146  A    between atoms: _376  and  _378
REMARK  147  A    between atoms: _378  and  _379
REMARK  148  A    between atoms: _378  and  _381
REMARK  149  A    between atoms: _381  and  _382
REMARK  150  A    between atoms: _388  and  _390
REMARK  151  A    between atoms: _390  and  _391
REMARK  152  A    between atoms: _390  and  _393
REMARK  153  A    between atoms: _393  and  _394
REMARK  154  A    between atoms: _397  and  _399
REMARK  155  A    between atoms: _399  and  _400
REMARK  156  A    between atoms: _399  and  _402
REMARK  157  A    between atoms: _402  and  _403
REMARK  158  A    between atoms: _406  and  _408
REMARK  159  A    between atoms: _408  and  _409
REMARK  160  A    between atoms: _408  and  _411
REMARK  161  A    between atoms: _411  and  _412
REMARK  162  A    between atoms: _412  and  _413
REMARK  163  A    between atoms: _413  and  _414
REMARK  164  A    between atoms: _423  and  _425
REMARK  165  A    between atoms: _425  and  _426
REMARK  166  A    between atoms: _425  and  _428
REMARK  167  A    between atoms: _428  and  _429
REMARK  168  A    between atoms: _434  and  _436
REMARK  169  A    between atoms: _436  and  _437
REMARK  170  A    between atoms: _436  and  _439
REMARK  171  A    between atoms: _439  and  _440
REMARK  172  A    between atoms: _440  and  _441
REMARK  173  A    between atoms: _441  and  _442
REMARK  174  A    between atoms: _451  and  _453
REMARK  175  A    between atoms: _453  and  _454
REMARK  176  A    between atoms: _457  and  _459
REMARK  177  A    between atoms: _459  and  _460
REMARK  178  A    between atoms: _462  and  _464
REMARK  179  A    between atoms: _464  and  _465
REMARK  180  A    between atoms: _464  and  _467
REMARK  181  A    between atoms: _467  and  _468
REMARK  182  A    between atoms: _478  and  _480
REMARK  183  A    between atoms: _480  and  _481
REMARK  184  A    between atoms: _480  and  _483
REMARK  185  A    between atoms: _483  and  _484
REMARK  186  A    between atoms: _485  and  _487
REMARK  187  A    between atoms: _487  and  _488
REMARK  188  A    between atoms: _491  and  _493
REMARK  189  A    between atoms: _493  and  _494
REMARK  190  A    between atoms: _493  and  _496
REMARK  191  A    between atoms: _496  and  _497
REMARK  192  A    between atoms: _500  and  _502
REMARK  193  A    between atoms: _502  and  _503
REMARK  194  A    between atoms: _502  and  _505
REMARK  195  A    between atoms: _505  and  _506
REMARK  196  A    between atoms: _511  and  _512
REMARK  197  A    between atoms: _514  and  _516
REMARK  198  A    between atoms: _516  and  _517
REMARK  199  A    between atoms: _516  and  _519
REMARK  200  A    between atoms: _519  and  _520
REMARK  201  A    between atoms: _522  and  _524
REMARK  202  A    between atoms: _524  and  _525
REMARK  203  A    between atoms: _524  and  _527
REMARK  204  A    between atoms: _527  and  _528
REMARK  205  A    between atoms: _534  and  _536
REMARK  206  A    between atoms: _536  and  _537
REMARK  207  A    between atoms: _536  and  _539
REMARK  208  A    between atoms: _539  and  _540
REMARK  209  A    between atoms: _543  and  _545
REMARK  210  A    between atoms: _545  and  _546
REMARK  211  A    between atoms: _545  and  _548
REMARK  212  A    between atoms: _548  and  _549
REMARK  213  A    between atoms: _551  and  _553
REMARK  214  A    between atoms: _553  and  _554
REMARK  215  A    between atoms: _553  and  _556
REMARK  216  A    between atoms: _556  and  _557
REMARK  217  A    between atoms: _559  and  _561
REMARK  218  A    between atoms: _561  and  _562
REMARK  219  A    between atoms: _561  and  _564
REMARK  220  A    between atoms: _564  and  _565
REMARK  221  A    between atoms: _570  and  _572
REMARK  222  A    between atoms: _572  and  _573
REMARK  223  A    between atoms: _572  and  _575
REMARK  224  A    between atoms: _575  and  _576
REMARK  225  A    between atoms: _581  and  _583
REMARK  226  A    between atoms: _583  and  _584
REMARK  227  A    between atoms: _583  and  _586
REMARK  228  A    between atoms: _586  and  _587
REMARK  229  A    between atoms: _590  and  _592
REMARK  230  A    between atoms: _592  and  _593
REMARK  231  A    between atoms: _596  and  _598
REMARK  232  A    between atoms: _598  and  _599
REMARK  233  A    between atoms: _598  and  _601
REMARK  234  A    between atoms: _601  and  _602
REMARK  235  A    between atoms: _607  and  _608
REMARK  236  A    between atoms: _610  and  _612
REMARK  237  A    between atoms: _612  and  _613
REMARK  238  A    between atoms: _612  and  _615
REMARK  239  A    between atoms: _615  and  _616
REMARK  240  A    between atoms: _621  and  _622
REMARK  241  A    between atoms: _624  and  _626
REMARK  242  A    between atoms: _626  and  _627
REMARK  243  A    between atoms: _626  and  _629
REMARK  244  A    between atoms: _632  and  _634
REMARK  245  A    between atoms: _634  and  _635
REMARK  246  A    between atoms: _634  and  _637
REMARK  247  A    between atoms: _637  and  _638
REMARK  248  A    between atoms: _643  and  _645
REMARK  249  A    between atoms: _645  and  _646
REMARK  250  A    between atoms: _649  and  _651
REMARK  251  A    between atoms: _651  and  _652
REMARK  252  A    between atoms: _651  and  _654
REMARK  253  A    between atoms: _654  and  _655
REMARK  254  A    between atoms: _655  and  _656
REMARK  255  A    between atoms: _656  and  _657
REMARK  256  A    between atoms: _666  and  _668
REMARK  257  A    between atoms: _668  and  _669
REMARK  258  A    between atoms: _668  and  _671
REMARK  259  A    between atoms: _671  and  _672
REMARK  260  A    between atoms: _675  and  _677
REMARK  261  A    between atoms: _677  and  _678
REMARK  262  A    between atoms: _677  and  _680
REMARK  263  A    between atoms: _680  and  _681
REMARK  264  A    between atoms: _684  and  _686
REMARK  265  A    between atoms: _686  and  _687
REMARK  266  A    between atoms: _686  and  _689
REMARK  267  A    between atoms: _689  and  _690
REMARK                            x       y       z     vdW  Elec       q    Type
REMARK                         _______ _______ _______ _____ _____    ______ ____
ROOT
ATOM      1  CA  HIS A   2      12.005  14.666   8.372  0.00  0.00    +0.155 C 
ENDROOT
BRANCH   1   2
ATOM      2  C   HIS A   2      12.499  15.866   7.622  0.00  0.00    +0.244 C 
ATOM      3  N   PRO A   3      11.723  16.947   7.469  0.00  0.00    -0.272 N 
ATOM      4  CD  PRO A   3      10.329  17.029   7.979  0.00  0.00    +0.094 C 
ATOM      5  CG  PRO A   3       9.796  18.240   7.178  0.00  0.00    +0.024 C 
ATOM      6  CB  PRO A   3      10.950  19.152   6.866  0.00  0.00    +0.031 C 
ATOM      7  CA  PRO A   3      12.117  18.126   6.729  0.00  0.00    +0.152 C 
ATOM      8  O   HIS A   2      13.631  15.913   7.115  0.00  0.00    -0.273 OA
BRANCH   7   9
ATOM      9  C   PRO A   3      13.378  18.785   7.194  0.00  0.00    +0.241 C 
ATOM     10  N   SER A   4      13.713  18.783   8.470  0.00  0.00    -0.296 N 
ATOM     11  H   SER A   4      13.100  18.289   9.149  0.00  0.00    +0.150 HD
ATOM     12  O   PRO A   3      14.116  19.351   6.328  0.00  0.00    -0.273 OA
BRANCH  10  13
ATOM     13  CA  SER A   4      14.930  19.459   8.967  0.00  0.00    +0.166 C 
BRANCH  13  14
ATOM     14  C   SER A   4      16.198  18.887   8.337  0.00  0.00    +0.229 C 
ATOM     15  O   SER A   4      17.190  19.653   8.304  0.00  0.00    -0.286 OA
ENDBRANCH  13  14
BRANCH  13  16
ATOM     16  CB  SER A   4      14.984  19.426  10.482  0.00  0.00    +0.165 C 
BRANCH  16  17
ATOM     17  OG  SER A   4      15.193  18.088  10.962  0.00  0.00    -0.380 OA
ATOM     18  H   SER A   4      14.449  17.510  10.658  0.00  0.00    +0.211 HD
ENDBRANCH  16  17
ENDBRANCH  13  16
ENDBRANCH  10  13
ENDBRANCH   7   9
ENDBRANCH   1   2
BRANCH   1  20
ATOM     19  C   VAL A   1      11.954  12.877   6.709  0.00  0.00    +0.238 C 
ATOM     20  N   HIS A   2      12.417  13.395   7.829  0.00  0.00    -0.297 N 
ATOM     21  H   HIS A   2      13.128  12.850   8.357  0.00  0.00    +0.150 HD
ATOM     22  O   VAL A   1      11.143  13.509   6.021  0.00  0.00    -0.274 OA
BRANCH  19  23
ATOM     23  CA  VAL A   1      12.418  11.505   6.258  0.00  0.00    +0.145 C 
BRANCH  23  24
ATOM     24  CB  VAL A   1      11.241  10.493   6.338  0.00  0.00    +0.025 C 
ATOM     25  CG2 VAL A   1      10.676  10.487   7.741  0.00  0.00    +0.002 C 
ATOM     26  CG1 VAL A   1      11.720   9.135   5.843  0.00  0.00    +0.002 C 
ENDBRANCH  23  24
BRANCH  23  27
ATOM     27  N   VAL A   1      13.532  11.047   7.097  0.00  0.00    -0.238 NA
ATOM     28  H   VAL A   1      13.334  10.463   7.934  0.00  0.00    +0.142 HD
ENDBRANCH  23  27
ENDBRANCH  19  23
ENDBRANCH   1  20
BRANCH   1  29
ATOM     29  CB  HIS A   2      12.506  14.669   9.838  0.00  0.00    +0.076 C 
BRANCH  29  30
ATOM     30  CG  HIS A   2      11.857  15.779  10.608  0.00  0.00    +0.082 A 
ATOM     31  CD2 HIS A   2      10.631  15.843  11.174  0.00  0.00    +0.115 A 
ATOM     32  NE2 HIS A   2      10.535  17.099  11.782  0.00  0.00    -0.221 NA
ATOM     33  CE1 HIS A   2      11.693  17.762  11.553  0.00  0.00    +0.199 A 
ATOM     34  ND1 HIS A   2      12.501  16.977  10.850  0.00  0.00    -0.227 NA
ENDBRANCH  29  30
ENDBRANCH   1  29
TORSDOF 12
REMARK  Name = ../refined-set-2016/2olb/2olb_pocket.pdb
REMARK  267 active torsions:
REMARK  status: ('A' for Active; 'I' for Inactive)
REMARK    1  A    between atoms: _1  and  _3
REMARK    2  A    between atoms: _3  and  _4
REMARK    3  A    between atoms: _3  and  _6
REMARK    4  A    between atoms: _6  and  _7
REMARK    5  A    between atoms: _12  and  _14
REMARK    6  A    between atoms: _14  and  _15
REMARK    7  A    between atoms: _17  and  _19
REMARK    8  A    between atoms: _19  and  _20
REMARK    9  A    between atoms: _19  and  _22
REMARK   10  A    between atoms: _22  and  _23
REMARK   11  A    between atoms: _23  and  _24
REMARK   12  A    between atoms: _29  and  _31
REMARK   13  A    between atoms: _31  and  _32
REMARK   14  A    between atoms: _31  and  _34
REMARK   15  A    between atoms: _34  and  _35
REMARK   16  A    between atoms: _38  and  _40
REMARK   17  A    between atoms: _40  and  _41
REMARK   18  A    between atoms: _40  and  _43
REMARK   19  A    between atoms: _43  and  _44
REMARK   20  A    between atoms: _44  and  _45
REMARK   21  A    between atoms: _48  and  _50
REMARK   22  A    between atoms: _50  and  _51
REMARK   23  A    between atoms: _53  and  _55
REMARK   24  A    between atoms: _55  and  _56
REMARK   25  A    between atoms: _55  and  _58
REMARK   26  A    between atoms: _62  and  _63
REMARK   27  A    between atoms: _68  and  _70
REMARK   28  A    between atoms: _70  and  _71
REMARK   29  A    between atoms: _70  and  _73
REMARK   30  A    between atoms: _73  and  _74
REMARK   31  A    between atoms: _74  and  _75
REMARK   32  A    between atoms: _78  and  _80
REMARK   33  A    between atoms: _80  and  _81
REMARK   34  A    between atoms: _80  and  _83
REMARK   35  A    between atoms: _83  and  _84
REMARK   36  A    between atoms: _86  and  _88
REMARK   37  A    between atoms: _88  and  _89
REMARK   38  A    between atoms: _88  and  _91
REMARK   39  A    between atoms: _91  and  _92
REMARK   40  A    between atoms: _97  and  _99
REMARK   41  A    between atoms: _99  and  _100
REMARK   42  A    between atoms: _99  and  _102
REMARK   43  A    between atoms: _102  and  _103
REMARK   44  A    between atoms: _103  and  _104
REMARK   45  A    between atoms: _104  and  _105
REMARK   46  A    between atoms: _115  and  _116
REMARK   47  A    between atoms: _121  and  _123
REMARK   48  A    between atoms: _123  and  _124
REMARK   49  A    between atoms: _123  and  _126
REMARK   50  A    between atoms: _126  and  _127
REMARK   51  A    between atoms: _132  and  _133
REMARK   52  A    between atoms: _135  and  _137
REMARK   53  A    between atoms: _137  and  _138
REMARK   54  A    between atoms: _137  and  _140
REMARK   55  A    between atoms: _140  and  _141
REMARK   56  A    between atoms: _146  and  _147
REMARK   57  A    between atoms: _149  and  _151
REMARK   58  A    between atoms: _151  and  _152
REMARK   59  A    between atoms: _151  and  _154
REMARK   60  A    between atoms: _157  and  _159
REMARK   61  A    between atoms: _159  and  _160
REMARK   62  A    between atoms: _159  and  _162
REMARK   63  A    between atoms: _162  and  _163
REMARK   64  A    between atoms: _169  and  _170
REMARK   65  A    between atoms: _175  and  _177
REMARK   66  A    between atoms: _177  and  _178
REMARK   67  A    between atoms: _177  and  _180
REMARK   68  A    between atoms: _180  and  _181
REMARK   69  A    between atoms: _183  and  _185
REMARK   70  A    between atoms: _185  and  _186
REMARK   71  A    between atoms: _185  and  _188
REMARK   72  A    between atoms: _188  and  _189
REMARK   73  A    between atoms: _189  and  _190
REMARK   74  A    between atoms: _193  and  _195
REMARK   75  A    between atoms: _195  and  _196
REMARK   76  A    between atoms: _195  and  _198
REMARK   77  A    between atoms: _198  and  _199
REMARK   78  A    between atoms: _204  and  _205
REMARK   79  A    between atoms: _207  and  _209
REMARK   80  A    between atoms: _209  and  _210
REMARK   81  A    between atoms: _209  and  _212
REMARK   82  A    between atoms: _212  and  _213
REMARK   83  A    between atoms: _218  and  _220
REMARK   84  A    between atoms: _220  and  _221
REMARK   85  A    between atoms: _220  and  _223
REMARK   86  A    between atoms: _223  and  _224
REMARK   87  A    between atoms: _229  and  _231
REMARK   88  A    between atoms: _231  and  _232
REMARK   89  A    between atoms: _231  and  _234
REMARK   90  A    between atoms: _234  and  _235
REMARK   91  A    between atoms: _235  and  _236
REMARK   92  A    between atoms: _238  and  _240
REMARK   93  A    between atoms: _240  and  _241
REMARK   94  A    between atoms: _240  and  _243
REMARK   95  A    between atoms: _243  and  _244
REMARK   96  A    between atoms: _249  and  _250
REMARK   97  A    between atoms: _252  and  _254
REMARK   98  A    between atoms: _254  and  _255
REMARK   99  A    between atoms: _254  and  _257
REMARK  100  A    between atoms: _257  and  _258
REMARK  101  A    between atoms: _261  and  _263
REMARK  102  A    between atoms: _263  and  _264
REMARK  103  A    between atoms: _263  and  _266
REMARK  104  A    between atoms: _266  and  _267
REMARK  105  A    between atoms: _267  and  _484
REMARK  106  A    between atoms: _268  and  _270
REMARK  107  A    between atoms: _270  and  _271
REMARK  108  A    between atoms: _270  and  _273
REMARK  109  A    between atoms: _273  and  _274
REMARK  110  A    between atoms: _277  and  _279
REMARK  111  A    between atoms: _279  and  _280
REMARK  112  A    between atoms: _279  and  _282
REMARK  113  A    between atoms: _282  and  _283
REMARK  114  A    between atoms: _288  and  _289
REMARK  115  A    between atoms: _291  and  _293
REMARK  116  A    between atoms: _293  and  _294
REMARK  117  A    between atoms: _293  and  _296
REMARK  118  A    between atoms: _296  and  _297
REMARK  119  A    between atoms: _302  and  _303
REMARK  120  A    between atoms: _305  and  _307
REMARK  121  A    between atoms: _307  and  _308
REMARK  122  A    between atoms: _307  and  _310
REMARK  123  A    between atoms: _310  and  _311
REMARK  124  A    between atoms: _311  and  _312
REMARK  125  A    between atoms: _315  and  _317
REMARK  126  A    between atoms: _317  and  _318
REMARK  127  A    between atoms: _317  and  _320
REMARK  128  A    between atoms: _320  and  _321
REMARK  129  A    between atoms: _326  and  _327
REMARK  130  A    between atoms: _329  and  _331
REMARK  131  A    between atoms: _331  and  _332
REMARK  132  A    between atoms: _331  and  _334
REMARK  133  A    between atoms: _334  and  _335
REMARK  134  A    between atoms: _340  and  _342
REMARK  135  A    between atoms: _342  and  _343
REMARK  136  A    between atoms: _342  and  _345
REMARK  137  A    between atoms: _345  and  _346
REMARK  138  A    between atoms: _349  and  _351
REMARK  139  A    between atoms: _351  and  _352
REMARK  140  A    between atoms: _351  and  _354
REMARK  141  A    between atoms: _354  and  _355
REMARK  142  A    between atoms: _360  and  _362
REMARK  143  A    between atoms: _362  and  _363
REMARK  144  A    between atoms: _362  and  _365
REMARK  145  A    between atoms: _365  and  _366
REMARK  146  A    between atoms: _376  and  _378
REMARK  147  A    between atoms: _378  and  _379
REMARK  148  A    between atoms: _378  and  _381
REMARK  149  A    between atoms: _381  and  _382
REMARK  150  A    between atoms: _388  and  _390
REMARK  151  A    between atoms: _390  and  _391
REMARK  152  A    between atoms: _390  and  _393
REMARK  153  A    between atoms: _393  and  _394
REMARK  154  A    between atoms: _397  and  _399
REMARK  155  A    between atoms: _399  and  _400
REMARK  156  A    between atoms: _399  and  _402
REMARK  157  A    between atoms: _402  and  _403
REMARK  158  A    between atoms: _406  and  _408
REMARK  159  A    between atoms: _408  and  _409
REMARK  160  A    between atoms: _408  and  _411
REMARK  161  A    between atoms: _411  and  _412
REMARK  162  A    between atoms: _412  and  _413
REMARK  163  A    between atoms: _413  and  _414
REMARK  164  A    between atoms: _423  and  _425
REMARK  165  A    between atoms: _425  and  _426
REMARK  166  A    between atoms: _425  and  _428
REMARK  167  A    between atoms: _428  and  _429
REMARK  168  A    between atoms: _434  and  _436
REMARK  169  A    between atoms: _436  and  _437
REMARK  170  A    between atoms: _436  and  _439
REMARK  171  A    between atoms: _439  and  _440
REMARK  172  A    between atoms: _440  and  _441
REMARK  173  A    between atoms: _441  and  _442
REMARK  174  A    between atoms: _451  and  _453
REMARK  175  A    between atoms: _453  and  _454
REMARK  176  A    between atoms: _457  and  _459
REMARK  177  A    between atoms: _459  and  _460
REMARK  178  A    between atoms: _462  and  _464
REMARK  179  A    between atoms: _464  and  _465
REMARK  180  A    between atoms: _464  and  _467
REMARK  181  A    between atoms: _467  and  _468
REMARK  182  A    between atoms: _478  and  _480
REMARK  183  A    between atoms: _480  and  _481
REMARK  184  A    between atoms: _480  and  _483
REMARK  185  A    between atoms: _483  and  _484
REMARK  186  A    between atoms: _485  and  _487
REMARK  187  A    between atoms: _487  and  _488
REMARK  188  A    between atoms: _491  and  _493
REMARK  189  A    between atoms: _493  and  _494
REMARK  190  A    between atoms: _493  and  _496
REMARK  191  A    between atoms: _496  and  _497
REMARK  192  A    between atoms: _500  and  _502
REMARK  193  A    between atoms: _502  and  _503
REMARK  194  A    between atoms: _502  and  _505
REMARK  195  A    between atoms: _505  and  _506
REMARK  196  A    between atoms: _511  and  _512
REMARK  197  A    between atoms: _514  and  _516
REMARK  198  A    between atoms: _516  and  _517
REMARK  199  A    between atoms: _516  and  _519
REMARK  200  A    between atoms: _519  and  _520
REMARK  201  A    between atoms: _522  and  _524
REMARK  202  A    between atoms: _524  and  _525
REMARK  203  A    between atoms: _524  and  _527
REMARK  204  A    between atoms: _527  and  _528
REMARK  205  A    between atoms: _534  and  _536
REMARK  206  A    between atoms: _536  and  _537
REMARK  207  A    between atoms: _536  and  _539
REMARK  208  A    between atoms: _539  and  _540
REMARK  209  A    between atoms: _543  and  _545
REMARK  210  A    between atoms: _545  and  _546
REMARK  211  A    between atoms: _545  and  _548
REMARK  212  A    between atoms: _548  and  _549
REMARK  213  A    between atoms: _551  and  _553
REMARK  214  A    between atoms: _553  and  _554
REMARK  215  A    between atoms: _553  and  _556
REMARK  216  A    between atoms: _556  and  _557
REMARK  217  A    between atoms: _559  and  _561
REMARK  218  A    between atoms: _561  and  _562
REMARK  219  A    between atoms: _561  and  _564
REMARK  220  A    between atoms: _564  and  _565
REMARK  221  A    between atoms: _570  and  _572
REMARK  222  A    between atoms: _572  and  _573
REMARK  223  A    between atoms: _572  and  _575
REMARK  224  A    between atoms: _575  and  _576
REMARK  225  A    between atoms: _581  and  _583
REMARK  226  A    between atoms: _583  and  _584
REMARK  227  A    between atoms: _583  and  _586
REMARK  228  A    between atoms: _586  and  _587
REMARK  229  A    between atoms: _590  and  _592
REMARK  230  A    between atoms: _592  and  _593
REMARK  231  A    between atoms: _596  and  _598
REMARK  232  A    between atoms: _598  and  _599
REMARK  233  A    between atoms: _598  and  _601
REMARK  234  A    between atoms: _601  and  _602
REMARK  235  A    between atoms: _607  and  _608
REMARK  236  A    between atoms: _610  and  _612
REMARK  237  A    between atoms: _612  and  _613
REMARK  238  A    between atoms: _612  and  _615
REMARK  239  A    between atoms: _615  and  _616
REMARK  240  A    between atoms: _621  and  _622
REMARK  241  A    between atoms: _624  and  _626
REMARK  242  A    between atoms: _626  and  _627
REMARK  243  A    between atoms: _626  and  _629
REMARK  244  A    between atoms: _632  and  _634
REMARK  245  A    between atoms: _634  and  _635
REMARK  246  A    between atoms: _634  and  _637
REMARK  247  A    between atoms: _637  and  _638
REMARK  248  A    between atoms: _643  and  _645
REMARK  249  A    between atoms: _645  and  _646
REMARK  250  A    between atoms: _649  and  _651
REMARK  251  A    between atoms: _651  and  _652
REMARK  252  A    between atoms: _651  and  _654
REMARK  253  A    between atoms: _654  and  _655
REMARK  254  A    between atoms: _655  and  _656
REMARK  255  A    between atoms: _656  and  _657
REMARK  256  A    between atoms: _666  and  _668
REMARK  257  A    between atoms: _668  and  _669
REMARK  258  A    between atoms: _668  and  _671
REMARK  259  A    between atoms: _671  and  _672
REMARK  260  A    between atoms: _675  and  _677
REMARK  261  A    between atoms: _677  and  _678
REMARK  262  A    between atoms: _677  and  _680
REMARK  263  A    between atoms: _680  and  _681
REMARK  264  A    between atoms: _684  and  _686
REMARK  265  A    between atoms: _686  and  _687
REMARK  266  A    between atoms: _686  and  _689
REMARK  267  A    between atoms: _689  and  _690
REMARK                            x       y       z     vdW  Elec       q    Type
REMARK                         _______ _______ _______ _____ _____    ______ ____
ROOT
ATOM      1  CA  GLU A   1     -12.441  23.748  10.468  0.00  0.00    +0.134 C 
ENDROOT
BRANCH   1   2
ATOM      2  N   GLU A   1     -12.122  25.095  10.929  0.00  0.00    -0.239 NA
ATOM      3  H   GLU A   1     -12.016  25.278  11.947  0.00  0.00    +0.142 HD
ENDBRANCH   1   2
BRANCH   1   4
ATOM      4  C   GLU A   1     -13.813  23.705   9.805  0.00  0.00    +0.224 C 
ATOM      5  O   GLU A   1     -14.027  22.883   8.882  0.00  0.00    -0.287 OA
ENDBRANCH   1   4
BRANCH   1   6
ATOM      6  CB  GLU A   1     -12.361  22.772  11.653  0.00  0.00    +0.037 C 
BRANCH   6   7
ATOM      7  CG  GLU A   1     -10.899  22.681  12.192  0.00  0.00    +0.116 C 
BRANCH   7   8
ATOM      8  CD  GLU A   1     -10.618  23.667  13.283  0.00  0.00    +0.365 C 
ATOM      9  OE2 GLU A   1      -9.492  23.589  13.848  0.00  0.00    -0.246 OA
ATOM     10  OE1 GLU A   1     -11.492  24.522  13.595  0.00  0.00    -0.246 OA
ENDBRANCH   7   8
ENDBRANCH   6   7
ENDBRANCH   1   6
TORSDOF 5
REMARK  Name = ../refined-set-2016/2olb/2olb_pocket.pdb
REMARK  267 active torsions:
REMARK  status: ('A' for Active; 'I' for Inactive)
REMARK    1  A    between atoms: _1  and  _3
REMARK    2  A    between atoms: _3  and  _4
REMARK    3  A    between atoms: _3  and  _6
REMARK    4  A    between atoms: _6  and  _7
REMARK    5  A    between atoms: _12  and  _14
REMARK    6  A    between atoms: _14  and  _15
REMARK    7  A    between atoms: _17  and  _19
REMARK    8  A    between atoms: _19  and  _20
REMARK    9  A    between atoms: _19  and  _22
REMARK   10  A    between atoms: _22  and  _23
REMARK   11  A    between atoms: _23  and  _24
REMARK   12  A    between atoms: _29  and  _31
REMARK   13  A    between atoms: _31  and  _32
REMARK   14  A    between atoms: _31  and  _34
REMARK   15  A    between atoms: _34  and  _35
REMARK   16  A    between atoms: _38  and  _40
REMARK   17  A    between atoms: _40  and  _41
REMARK   18  A    between atoms: _40  and  _43
REMARK   19  A    between atoms: _43  and  _44
REMARK   20  A    between atoms: _44  and  _45
REMARK   21  A    between atoms: _48  and  _50
REMARK   22  A    between atoms: _50  and  _51
REMARK   23  A    between atoms: _53  and  _55
REMARK   24  A    between atoms: _55  and  _56
REMARK   25  A    between atoms: _55  and  _58
REMARK   26  A    between atoms: _62  and  _63
REMARK   27  A    between atoms: _68  and  _70
REMARK   28  A    between atoms: _70  and  _71
REMARK   29  A    between atoms: _70  and  _73
REMARK   30  A    between atoms: _73  and  _74
REMARK   31  A    between atoms: _74  and  _75
REMARK   32  A    between atoms: _78  and  _80
REMARK   33  A    between atoms: _80  and  _81
REMARK   34  A    between atoms: _80  and  _83
REMARK   35  A    between atoms: _83  and  _84
REMARK   36  A    between atoms: _86  and  _88
REMARK   37  A    between atoms: _88  and  _89
REMARK   38  A    between atoms: _88  and  _91
REMARK   39  A    between atoms: _91  and  _92
REMARK   40  A    between atoms: _97  and  _99
REMARK   41  A    between atoms: _99  and  _100
REMARK   42  A    between atoms: _99  and  _102
REMARK   43  A    between atoms: _102  and  _103
REMARK   44  A    between atoms: _103  and  _104
REMARK   45  A    between atoms: _104  and  _105
REMARK   46  A    between atoms: _115  and  _116
REMARK   47  A    between atoms: _121  and  _123
REMARK   48  A    between atoms: _123  and  _124
REMARK   49  A    between atoms: _123  and  _126
REMARK   50  A    between atoms: _126  and  _127
REMARK   51  A    between atoms: _132  and  _133
REMARK   52  A    between atoms: _135  and  _137
REMARK   53  A    between atoms: _137  and  _138
REMARK   54  A    between atoms: _137  and  _140
REMARK   55  A    between atoms: _140  and  _141
REMARK   56  A    between atoms: _146  and  _147
REMARK   57  A    between atoms: _149  and  _151
REMARK   58  A    between atoms: _151  and  _152
REMARK   59  A    between atoms: _151  and  _154
REMARK   60  A    between atoms: _157  and  _159
REMARK   61  A    between atoms: _159  and  _160
REMARK   62  A    between atoms: _159  and  _162
REMARK   63  A    between atoms: _162  and  _163
REMARK   64  A    between atoms: _169  and  _170
REMARK   65  A    between atoms: _175  and  _177
REMARK   66  A    between atoms: _177  and  _178
REMARK   67  A    between atoms: _177  and  _180
REMARK   68  A    between atoms: _180  and  _181
REMARK   69  A    between atoms: _183  and  _185
REMARK   70  A    between atoms: _185  and  _186
REMARK   71  A    between atoms: _185  and  _188
REMARK   72  A    between atoms: _188  and  _189
REMARK   73  A    between atoms: _189  and  _190
REMARK   74  A    between atoms: _193  and  _195
REMARK   75  A    between atoms: _195  and  _196
REMARK   76  A    between atoms: _195  and  _198
REMARK   77  A    between atoms: _198  and  _199
REMARK   78  A    between atoms: _204  and  _205
REMARK   79  A    between atoms: _207  and  _209
REMARK   80  A    between atoms: _209  and  _210
REMARK   81  A    between atoms: _209  and  _212
REMARK   82  A    between atoms: _212  and  _213
REMARK   83  A    between atoms: _218  and  _220
REMARK   84  A    between atoms: _220  and  _221
REMARK   85  A    between atoms: _220  and  _223
REMARK   86  A    between atoms: _223  and  _224
REMARK   87  A    between atoms: _229  and  _231
REMARK   88  A    between atoms: _231  and  _232
REMARK   89  A    between atoms: _231  and  _234
REMARK   90  A    between atoms: _234  and  _235
REMARK   91  A    between atoms: _235  and  _236
REMARK   92  A    between atoms: _238  and  _240
REMARK   93  A    between atoms: _240  and  _241
REMARK   94  A    between atoms: _240  and  _243
REMARK   95  A    between atoms: _243  and  _244
REMARK   96  A    between atoms: _249  and  _250
REMARK   97  A    between atoms: _252  and  _254
REMARK   98  A    between atoms: _254  and  _255
REMARK   99  A    between atoms: _254  and  _257
REMARK  100  A    between atoms: _257  and  _258
REMARK  101  A    between atoms: _261  and  _263
REMARK  102  A    between atoms: _263  and  _264
REMARK  103  A    between atoms: _263  and  _266
REMARK  104  A    between atoms: _266  and  _267
REMARK  105  A    between atoms: _267  and  _484
REMARK  106  A    between atoms: _268  and  _270
REMARK  107  A    between atoms: _270  and  _271
REMARK  108  A    between atoms: _270  and  _273
REMARK  109  A    between atoms: _273  and  _274
REMARK  110  A    between atoms: _277  and  _279
REMARK  111  A    between atoms: _279  and  _280
REMARK  112  A    between atoms: _279  and  _282
REMARK  113  A    between atoms: _282  and  _283
REMARK  114  A    between atoms: _288  and  _289
REMARK  115  A    between atoms: _291  and  _293
REMARK  116  A    between atoms: _293  and  _294
REMARK  117  A    between atoms: _293  and  _296
REMARK  118  A    between atoms: _296  and  _297
REMARK  119  A    between atoms: _302  and  _303
REMARK  120  A    between atoms: _305  and  _307
REMARK  121  A    between atoms: _307  and  _308
REMARK  122  A    between atoms: _307  and  _310
REMARK  123  A    between atoms: _310  and  _311
REMARK  124  A    between atoms: _311  and  _312
REMARK  125  A    between atoms: _315  and  _317
REMARK  126  A    between atoms: _317  and  _318
REMARK  127  A    between atoms: _317  and  _320
REMARK  128  A    between atoms: _320  and  _321
REMARK  129  A    between atoms: _326  and  _327
REMARK  130  A    between atoms: _329  and  _331
REMARK  131  A    between atoms: _331  and  _332
REMARK  132  A    between atoms: _331  and  _334
REMARK  133  A    between atoms: _334  and  _335
REMARK  134  A    between atoms: _340  and  _342
REMARK  135  A    between atoms: _342  and  _343
REMARK  136  A    between atoms: _342  and  _345
REMARK  137  A    between atoms: _345  and  _346
REMARK  138  A    between atoms: _349  and  _351
REMARK  139  A    between atoms: _351  and  _352
REMARK  140  A    between atoms: _351  and  _354
REMARK  141  A    between atoms: _354  and  _355
REMARK  142  A    between atoms: _360  and  _362
REMARK  143  A    between atoms: _362  and  _363
REMARK  144  A    between atoms: _362  and  _365
REMARK  145  A    between atoms: _365  and  _366
REMARK  146  A    between atoms: _376  and  _378
REMARK  147  A    between atoms: _378  and  _379
REMARK  148  A    between atoms: _378  and  _381
REMARK  149  A    between atoms: _381  and  _382
REMARK  150  A    between atoms: _388  and  _390
REMARK  151  A    between atoms: _390  and  _391
REMARK  152  A    between atoms: _390  and  _393
REMARK  153  A    between atoms: _393  and  _394
REMARK  154  A    between atoms: _397  and  _399
REMARK  155  A    between atoms: _399  and  _400
REMARK  156  A    between atoms: _399  and  _402
REMARK  157  A    between atoms: _402  and  _403
REMARK  158  A    between atoms: _406  and  _408
REMARK  159  A    between atoms: _408  and  _409
REMARK  160  A    between atoms: _408  and  _411
REMARK  161  A    between atoms: _411  and  _412
REMARK  162  A    between atoms: _412  and  _413
REMARK  163  A    between atoms: _413  and  _414
REMARK  164  A    between atoms: _423  and  _425
REMARK  165  A    between atoms: _425  and  _426
REMARK  166  A    between atoms: _425  and  _428
REMARK  167  A    between atoms: _428  and  _429
REMARK  168  A    between atoms: _434  and  _436
REMARK  169  A    between atoms: _436  and  _437
REMARK  170  A    between atoms: _436  and  _439
REMARK  171  A    between atoms: _439  and  _440
REMARK  172  A    between atoms: _440  and  _441
REMARK  173  A    between atoms: _441  and  _442
REMARK  174  A    between atoms: _451  and  _453
REMARK  175  A    between atoms: _453  and  _454
REMARK  176  A    between atoms: _457  and  _459
REMARK  177  A    between atoms: _459  and  _460
REMARK  178  A    between atoms: _462  and  _464
REMARK  179  A    between atoms: _464  and  _465
REMARK  180  A    between atoms: _464  and  _467
REMARK  181  A    between atoms: _467  and  _468
REMARK  182  A    between atoms: _478  and  _480
REMARK  183  A    between atoms: _480  and  _481
REMARK  184  A    between atoms: _480  and  _483
REMARK  185  A    between atoms: _483  and  _484
REMARK  186  A    between atoms: _485  and  _487
REMARK  187  A    between atoms: _487  and  _488
REMARK  188  A    between atoms: _491  and  _493
REMARK  189  A    between atoms: _493  and  _494
REMARK  190  A    between atoms: _493  and  _496
REMARK  191  A    between atoms: _496  and  _497
REMARK  192  A    between atoms: _500  and  _502
REMARK  193  A    between atoms: _502  and  _503
REMARK  194  A    between atoms: _502  and  _505
REMARK  195  A    between atoms: _505  and  _506
REMARK  196  A    between atoms: _511  and  _512
REMARK  197  A    between atoms: _514  and  _516
REMARK  198  A    between atoms: _516  and  _517
REMARK  199  A    between atoms: _516  and  _519
REMARK  200  A    between atoms: _519  and  _520
REMARK  201  A    between atoms: _522  and  _524
REMARK  202  A    between atoms: _524  and  _525
REMARK  203  A    between atoms: _524  and  _527
REMARK  204  A    between atoms: _527  and  _528
REMARK  205  A    between atoms: _534  and  _536
REMARK  206  A    between atoms: _536  and  _537
REMARK  207  A    between atoms: _536  and  _539
REMARK  208  A    between atoms: _539  and  _540
REMARK  209  A    between atoms: _543  and  _545
REMARK  210  A    between atoms: _545  and  _546
REMARK  211  A    between atoms: _545  and  _548
REMARK  212  A    between atoms: _548  and  _549
REMARK  213  A    between atoms: _551  and  _553
REMARK  214  A    between atoms: _553  and  _554
REMARK  215  A    between atoms: _553  and  _556
REMARK  216  A    between atoms: _556  and  _557
REMARK  217  A    between atoms: _559  and  _561
REMARK  218  A    between atoms: _561  and  _562
REMARK  219  A    between atoms: _561  and  _564
REMARK  220  A    between atoms: _564  and  _565
REMARK  221  A    between atoms: _570  and  _572
REMARK  222  A    between atoms: _572  and  _573
REMARK  223  A    between atoms: _572  and  _575
REMARK  224  A    between atoms: _575  and  _576
REMARK  225  A    between atoms: _581  and  _583
REMARK  226  A    between atoms: _583  and  _584
REMARK  227  A    between atoms: _583  and  _586
REMARK  228  A    between atoms: _586  and  _587
REMARK  229  A    between atoms: _590  and  _592
REMARK  230  A    between atoms: _592  and  _593
REMARK  231  A    between atoms: _596  and  _598
REMARK  232  A    between atoms: _598  and  _599
REMARK  233  A    between atoms: _598  and  _601
REMARK  234  A    between atoms: _601  and  _602
REMARK  235  A    between atoms: _607  and  _608
REMARK  236  A    between atoms: _610  and  _612
REMARK  237  A    between atoms: _612  and  _613
REMARK  238  A    between atoms: _612  and  _615
REMARK  239  A    between atoms: _615  and  _616
REMARK  240  A    between atoms: _621  and  _622
REMARK  241  A    between atoms: _624  and  _626
REMARK  242  A    between atoms: _626  and  _627
REMARK  243  A    between atoms: _626  and  _629
REMARK  244  A    between atoms: _632  and  _634
REMARK  245  A    between atoms: _634  and  _635
REMARK  246  A    between atoms: _634  and  _637
REMARK  247  A    between atoms: _637  and  _638
REMARK  248  A    between atoms: _643  and  _645
REMARK  249  A    between atoms: _645  and  _646
REMARK  250  A    between atoms: _649  and  _651
REMARK  251  A    between atoms: _651  and  _652
REMARK  252  A    between atoms: _651  and  _654
REMARK  253  A    between atoms: _654  and  _655
REMARK  254  A    between atoms: _655  and  _656
REMARK  255  A    between atoms: _656  and  _657
REMARK  256  A    between atoms: _666  and  _668
REMARK  257  A    between atoms: _668  and  _669
REMARK  258  A    between atoms: _668  and  _671
REMARK  259  A    between atoms: _671  and  _672
REMARK  260  A    between atoms: _675  and  _677
REMARK  261  A    between atoms: _677  and  _678
REMARK  262  A    between atoms: _677  and  _680
REMARK  263  A    between atoms: _680  and  _681
REMARK  264  A    between atoms: _684  and  _686
REMARK  265  A    between atoms: _686  and  _687
REMARK  266  A    between atoms: _686  and  _689
REMARK  267  A    between atoms: _689  and  _690
REMARK                            x       y       z     vdW  Elec       q    Type
REMARK                         _______ _______ _______ _____ _____    ______ ____
ROOT
ATOM      1  CA  ASN A   2      -6.917  17.090   9.572  0.00  0.00    +0.158 C 
ENDROOT
BRANCH   1   3
ATOM      2  C   TYR A   1      -7.294  18.639   7.766  0.00  0.00    +0.239 C 
ATOM      3  N   ASN A   2      -6.464  18.117   8.658  0.00  0.00    -0.297 N 
ATOM      4  H   ASN A   2      -5.479  18.448   8.702  0.00  0.00    +0.150 HD
ATOM      5  O   TYR A   1      -8.507  18.286   7.752  0.00  0.00    -0.274 OA
BRANCH   2   6
ATOM      6  CA  TYR A   1      -6.752  19.702   6.776  0.00  0.00    +0.149 C 
BRANCH   6   7
ATOM      7  N   TYR A   1      -7.909  19.840   5.852  0.00  0.00    -0.238 NA
ATOM      8  H   TYR A   1      -8.547  20.658   5.920  0.00  0.00    +0.142 HD
ENDBRANCH   6   7
BRANCH   6   9
ATOM      9  CB  TYR A   1      -6.465  21.033   7.417  0.00  0.00    +0.053 C 
BRANCH   9  10
ATOM     10  CG  TYR A   1      -5.286  21.002   8.388  0.00  0.00    -0.020 A 
ATOM     11  CD2 TYR A   1      -5.489  21.296   9.726  0.00  0.00    -0.001 A 
ATOM     12  CE2 TYR A   1      -4.461  21.289  10.641  0.00  0.00    +0.036 A 
ATOM     13  CZ  TYR A   1      -3.184  20.982  10.182  0.00  0.00    +0.134 A 
ATOM     14  CE1 TYR A   1      -2.938  20.691   8.847  0.00  0.00    +0.036 A 
ATOM     15  CD1 TYR A   1      -3.997  20.698   7.960  0.00  0.00    -0.001 A 
BRANCH  13  16
ATOM     16  OH  TYR A   1      -2.176  20.983  11.120  0.00  0.00    -0.506 OA
ATOM     17  HH  TYR A   1      -1.319  20.753  10.682  0.00  0.00    +0.292 HD
ENDBRANCH  13  16
ENDBRANCH   9  10
ENDBRANCH   6   9
ENDBRANCH   2   6
ENDBRANCH   1   3
BRANCH   1  18
ATOM     18  C   ASN A   2      -7.287  17.521  10.965  0.00  0.00    +0.241 C 
ATOM     19  O   ASN A   2      -6.956  16.931  11.982  0.00  0.00    -0.273 OA
ATOM     20  N   ASN A   3      -8.044  18.619  11.032  0.00  0.00    -0.297 N 
ATOM     21  H   ASN A   3      -8.226  19.127  10.143  0.00  0.00    +0.150 HD
BRANCH  20  22
ATOM     22  CA  ASN A   3      -8.639  19.168  12.251  0.00  0.00    +0.158 C 
BRANCH  22  23
ATOM     23  C   ASN A   3     -10.151  19.150  11.842  0.00  0.00    +0.241 C 
ATOM     24  N   MET A   4     -10.955  18.330  12.497  0.00  0.00    -0.298 N 
ATOM     25  H   MET A   4     -10.584  17.732  13.262  0.00  0.00    +0.150 HD
ATOM     26  O   ASN A   3     -10.493  19.896  10.894  0.00  0.00    -0.273 OA
BRANCH  24  27
ATOM     27  CA  MET A   4     -12.393  18.271  12.130  0.00  0.00    +0.138 C 
BRANCH  27  28
ATOM     28  C   MET A   4     -13.237  19.094  13.119  0.00  0.00    +0.227 C 
ATOM     29  O   MET A   4     -13.011  19.101  14.331  0.00  0.00    -0.286 OA
ENDBRANCH  27  28
BRANCH  27  30
ATOM     30  CB  MET A   4     -12.896  16.839  12.052  0.00  0.00    +0.039 C 
BRANCH  30  31
ATOM     31  CG  MET A   4     -12.327  16.037  10.869  0.00  0.00    +0.060 C 
BRANCH  31  32
ATOM     32  SD  MET A   4     -13.101  16.478   9.310  0.00  0.00    -0.139 S 
ATOM     33  CE  MET A   4     -11.997  17.762   8.700  0.00  0.00    +0.069 C 
ENDBRANCH  31  32
ENDBRANCH  30  31
ENDBRANCH  27  30
ENDBRANCH  24  27
ENDBRANCH  22  23
BRANCH  22  34
ATOM     34  CB  ASN A   3      -8.174  20.556  12.633  0.00  0.00    +0.114 C 
BRANCH  34  35
ATOM     35  CG  ASN A   3      -6.883  20.593  13.463  0.00  0.00    +0.222 C 
ATOM     36  OD1 ASN A   3      -6.487  19.571  14.020  0.00  0.00    -0.275 OA
ATOM     37  ND2 ASN A   3      -6.312  21.771  13.526  0.00  0.00    -0.329 N 
ATOM     38 HD21 ASN A   3      -5.445  21.899  14.085  0.00  0.00    +0.145 HD
ATOM     39 HD22 ASN A   3      -6.726  22.578  13.017  0.00  0.00    +0.145 HD
ENDBRANCH  34  35
ENDBRANCH  22  34
ENDBRANCH  20  22
ENDBRANCH   1  18
BRANCH   1  40
ATOM     40  CB  ASN A   2      -5.983  15.885   9.495  0.00  0.00    +0.114 C 
BRANCH  40  41
ATOM     41  CG  ASN A   2      -4.588  16.240   9.935  0.00  0.00    +0.222 C 
ATOM     42  ND2 ASN A   2      -3.810  15.205  10.235  0.00  0.00    -0.329 N 
ATOM     43 HD21 ASN A   2      -2.833  15.364  10.554  0.00  0.00    +0.145 HD
ATOM     44 HD22 ASN A   2      -4.178  14.236  10.151  0.00  0.00    +0.145 HD
ATOM     45  OD1 ASN A   2      -4.193  17.429  10.019  0.00  0.00    -0.275 OA
ENDBRANCH  40  41
ENDBRANCH   1  40
TORSDOF 18
REMARK  Name = ../refined-set-2016/2olb/2olb_pocket.pdb
REMARK  267 active torsions:
REMARK  status: ('A' for Active; 'I' for Inactive)
REMARK    1  A    between atoms: _1  and  _3
REMARK    2  A    between atoms: _3  and  _4
REMARK    3  A    between atoms: _3  and  _6
REMARK    4  A    between atoms: _6  and  _7
REMARK    5  A    between atoms: _12  and  _14
REMARK    6  A    between atoms: _14  and  _15
REMARK    7  A    between atoms: _17  and  _19
REMARK    8  A    between atoms: _19  and  _20
REMARK    9  A    between atoms: _19  and  _22
REMARK   10  A    between atoms: _22  and  _23
REMARK   11  A    between atoms: _23  and  _24
REMARK   12  A    between atoms: _29  and  _31
REMARK   13  A    between atoms: _31  and  _32
REMARK   14  A    between atoms: _31  and  _34
REMARK   15  A    between atoms: _34  and  _35
REMARK   16  A    between atoms: _38  and  _40
REMARK   17  A    between atoms: _40  and  _41
REMARK   18  A    between atoms: _40  and  _43
REMARK   19  A    between atoms: _43  and  _44
REMARK   20  A    between atoms: _44  and  _45
REMARK   21  A    between atoms: _48  and  _50
REMARK   22  A    between atoms: _50  and  _51
REMARK   23  A    between atoms: _53  and  _55
REMARK   24  A    between atoms: _55  and  _56
REMARK   25  A    between atoms: _55  and  _58
REMARK   26  A    between atoms: _62  and  _63
REMARK   27  A    between atoms: _68  and  _70
REMARK   28  A    between atoms: _70  and  _71
REMARK   29  A    between atoms: _70  and  _73
REMARK   30  A    between atoms: _73  and  _74
REMARK   31  A    between atoms: _74  and  _75
REMARK   32  A    between atoms: _78  and  _80
REMARK   33  A    between atoms: _80  and  _81
REMARK   34  A    between atoms: _80  and  _83
REMARK   35  A    between atoms: _83  and  _84
REMARK   36  A    between atoms: _86  and  _88
REMARK   37  A    between atoms: _88  and  _89
REMARK   38  A    between atoms: _88  and  _91
REMARK   39  A    between atoms: _91  and  _92
REMARK   40  A    between atoms: _97  and  _99
REMARK   41  A    between atoms: _99  and  _100
REMARK   42  A    between atoms: _99  and  _102
REMARK   43  A    between atoms: _102  and  _103
REMARK   44  A    between atoms: _103  and  _104
REMARK   45  A    between atoms: _104  and  _105
REMARK   46  A    between atoms: _115  and  _116
REMARK   47  A    between atoms: _121  and  _123
REMARK   48  A    between atoms: _123  and  _124
REMARK   49  A    between atoms: _123  and  _126
REMARK   50  A    between atoms: _126  and  _127
REMARK   51  A    between atoms: _132  and  _133
REMARK   52  A    between atoms: _135  and  _137
REMARK   53  A    between atoms: _137  and  _138
REMARK   54  A    between atoms: _137  and  _140
REMARK   55  A    between atoms: _140  and  _141
REMARK   56  A    between atoms: _146  and  _147
REMARK   57  A    between atoms: _149  and  _151
REMARK   58  A    between atoms: _151  and  _152
REMARK   59  A    between atoms: _151  and  _154
REMARK   60  A    between atoms: _157  and  _159
REMARK   61  A    between atoms: _159  and  _160
REMARK   62  A    between atoms: _159  and  _162
REMARK   63  A    between atoms: _162  and  _163
REMARK   64  A    between atoms: _169  and  _170
REMARK   65  A    between atoms: _175  and  _177
REMARK   66  A    between atoms: _177  and  _178
REMARK   67  A    between atoms: _177  and  _180
REMARK   68  A    between atoms: _180  and  _181
REMARK   69  A    between atoms: _183  and  _185
REMARK   70  A    between atoms: _185  and  _186
REMARK   71  A    between atoms: _185  and  _188
REMARK   72  A    between atoms: _188  and  _189
REMARK   73  A    between atoms: _189  and  _190
REMARK   74  A    between atoms: _193  and  _195
REMARK   75  A    between atoms: _195  and  _196
REMARK   76  A    between atoms: _195  and  _198
REMARK   77  A    between atoms: _198  and  _199
REMARK   78  A    between atoms: _204  and  _205
REMARK   79  A    between atoms: _207  and  _209
REMARK   80  A    between atoms: _209  and  _210
REMARK   81  A    between atoms: _209  and  _212
REMARK   82  A    between atoms: _212  and  _213
REMARK   83  A    between atoms: _218  and  _220
REMARK   84  A    between atoms: _220  and  _221
REMARK   85  A    between atoms: _220  and  _223
REMARK   86  A    between atoms: _223  and  _224
REMARK   87  A    between atoms: _229  and  _231
REMARK   88  A    between atoms: _231  and  _232
REMARK   89  A    between atoms: _231  and  _234
REMARK   90  A    between atoms: _234  and  _235
REMARK   91  A    between atoms: _235  and  _236
REMARK   92  A    between atoms: _238  and  _240
REMARK   93  A    between atoms: _240  and  _241
REMARK   94  A    between atoms: _240  and  _243
REMARK   95  A    between atoms: _243  and  _244
REMARK   96  A    between atoms: _249  and  _250
REMARK   97  A    between atoms: _252  and  _254
REMARK   98  A    between atoms: _254  and  _255
REMARK   99  A    between atoms: _254  and  _257
REMARK  100  A    between atoms: _257  and  _258
REMARK  101  A    between atoms: _261  and  _263
REMARK  102  A    between atoms: _263  and  _264
REMARK  103  A    between atoms: _263  and  _266
REMARK  104  A    between atoms: _266  and  _267
REMARK  105  A    between atoms: _267  and  _484
REMARK  106  A    between atoms: _268  and  _270
REMARK  107  A    between atoms: _270  and  _271
REMARK  108  A    between atoms: _270  and  _273
REMARK  109  A    between atoms: _273  and  _274
REMARK  110  A    between atoms: _277  and  _279
REMARK  111  A    between atoms: _279  and  _280
REMARK  112  A    between atoms: _279  and  _282
REMARK  113  A    between atoms: _282  and  _283
REMARK  114  A    between atoms: _288  and  _289
REMARK  115  A    between atoms: _291  and  _293
REMARK  116  A    between atoms: _293  and  _294
REMARK  117  A    between atoms: _293  and  _296
REMARK  118  A    between atoms: _296  and  _297
REMARK  119  A    between atoms: _302  and  _303
REMARK  120  A    between atoms: _305  and  _307
REMARK  121  A    between atoms: _307  and  _308
REMARK  122  A    between atoms: _307  and  _310
REMARK  123  A    between atoms: _310  and  _311
REMARK  124  A    between atoms: _311  and  _312
REMARK  125  A    between atoms: _315  and  _317
REMARK  126  A    between atoms: _317  and  _318
REMARK  127  A    between atoms: _317  and  _320
REMARK  128  A    between atoms: _320  and  _321
REMARK  129  A    between atoms: _326  and  _327
REMARK  130  A    between atoms: _329  and  _331
REMARK  131  A    between atoms: _331  and  _332
REMARK  132  A    between atoms: _331  and  _334
REMARK  133  A    between atoms: _334  and  _335
REMARK  134  A    between atoms: _340  and  _342
REMARK  135  A    between atoms: _342  and  _343
REMARK  136  A    between atoms: _342  and  _345
REMARK  137  A    between atoms: _345  and  _346
REMARK  138  A    between atoms: _349  and  _351
REMARK  139  A    between atoms: _351  and  _352
REMARK  140  A    between atoms: _351  and  _354
REMARK  141  A    between atoms: _354  and  _355
REMARK  142  A    between atoms: _360  and  _362
REMARK  143  A    between atoms: _362  and  _363
REMARK  144  A    between atoms: _362  and  _365
REMARK  145  A    between atoms: _365  and  _366
REMARK  146  A    between atoms: _376  and  _378
REMARK  147  A    between atoms: _378  and  _379
REMARK  148  A    between atoms: _378  and  _381
REMARK  149  A    between atoms: _381  and  _382
REMARK  150  A    between atoms: _388  and  _390
REMARK  151  A    between atoms: _390  and  _391
REMARK  152  A    between atoms: _390  and  _393
REMARK  153  A    between atoms: _393  and  _394
REMARK  154  A    between atoms: _397  and  _399
REMARK  155  A    between atoms: _399  and  _400
REMARK  156  A    between atoms: _399  and  _402
REMARK  157  A    between atoms: _402  and  _403
REMARK  158  A    between atoms: _406  and  _408
REMARK  159  A    between atoms: _408  and  _409
REMARK  160  A    between atoms: _408  and  _411
REMARK  161  A    between atoms: _411  and  _412
REMARK  162  A    between atoms: _412  and  _413
REMARK  163  A    between atoms: _413  and  _414
REMARK  164  A    between atoms: _423  and  _425
REMARK  165  A    between atoms: _425  and  _426
REMARK  166  A    between atoms: _425  and  _428
REMARK  167  A    between atoms: _428  and  _429
REMARK  168  A    between atoms: _434  and  _436
REMARK  169  A    between atoms: _436  and  _437
REMARK  170  A    between atoms: _436  and  _439
REMARK  171  A    between atoms: _439  and  _440
REMARK  172  A    between atoms: _440  and  _441
REMARK  173  A    between atoms: _441  and  _442
REMARK  174  A    between atoms: _451  and  _453
REMARK  175  A    between atoms: _453  and  _454
REMARK  176  A    between atoms: _457  and  _459
REMARK  177  A    between atoms: _459  and  _460
REMARK  178  A    between atoms: _462  and  _464
REMARK  179  A    between atoms: _464  and  _465
REMARK  180  A    between atoms: _464  and  _467
REMARK  181  A    between atoms: _467  and  _468
REMARK  182  A    between atoms: _478  and  _480
REMARK  183  A    between atoms: _480  and  _481
REMARK  184  A    between atoms: _480  and  _483
REMARK  185  A    between atoms: _483  and  _484
REMARK  186  A    between atoms: _485  and  _487
REMARK  187  A    between atoms: _487  and  _488
REMARK  188  A    between atoms: _491  and  _493
REMARK  189  A    between atoms: _493  and  _494
REMARK  190  A    between atoms: _493  and  _496
REMARK  191  A    between atoms: _496  and  _497
REMARK  192  A    between atoms: _500  and  _502
REMARK  193  A    between atoms: _502  and  _503
REMARK  194  A    between atoms: _502  and  _505
REMARK  195  A    between atoms: _505  and  _506
REMARK  196  A    between atoms: _511  and  _512
REMARK  197  A    between atoms: _514  and  _516
REMARK  198  A    between atoms: _516  and  _517
REMARK  199  A    between atoms: _516  and  _519
REMARK  200  A    between atoms: _519  and  _520
REMARK  201  A    between atoms: _522  and  _524
REMARK  202  A    between atoms: _524  and  _525
REMARK  203  A    between atoms: _524  and  _527
REMARK  204  A    between atoms: _527  and  _528
REMARK  205  A    between atoms: _534  and  _536
REMARK  206  A    between atoms: _536  and  _537
REMARK  207  A    between atoms: _536  and  _539
REMARK  208  A    between atoms: _539  and  _540
REMARK  209  A    between atoms: _543  and  _545
REMARK  210  A    between atoms: _545  and  _546
REMARK  211  A    between atoms: _545  and  _548
REMARK  212  A    between atoms: _548  and  _549
REMARK  213  A    between atoms: _551  and  _553
REMARK  214  A    between atoms: _553  and  _554
REMARK  215  A    between atoms: _553  and  _556
REMARK  216  A    between atoms: _556  and  _557
REMARK  217  A    between atoms: _559  and  _561
REMARK  218  A    between atoms: _561  and  _562
REMARK  219  A    between atoms: _561  and  _564
REMARK  220  A    between atoms: _564  and  _565
REMARK  221  A    between atoms: _570  and  _572
REMARK  222  A    between atoms: _572  and  _573
REMARK  223  A    between atoms: _572  and  _575
REMARK  224  A    between atoms: _575  and  _576
REMARK  225  A    between atoms: _581  and  _583
REMARK  226  A    between atoms: _583  and  _584
REMARK  227  A    between atoms: _583  and  _586
REMARK  228  A    between atoms: _586  and  _587
REMARK  229  A    between atoms: _590  and  _592
REMARK  230  A    between atoms: _592  and  _593
REMARK  231  A    between atoms: _596  and  _598
REMARK  232  A    between atoms: _598  and  _599
REMARK  233  A    between atoms: _598  and  _601
REMARK  234  A    between atoms: _601  and  _602
REMARK  235  A    between atoms: _607  and  _608
REMARK  236  A    between atoms: _610  and  _612
REMARK  237  A    between atoms: _612  and  _613
REMARK  238  A    between atoms: _612  and  _615
REMARK  239  A    between atoms: _615  and  _616
REMARK  240  A    between atoms: _621  and  _622
REMARK  241  A    between atoms: _624  and  _626
REMARK  242  A    between atoms: _626  and  _627
REMARK  243  A    between atoms: _626  and  _629
REMARK  244  A    between atoms: _632  and  _634
REMARK  245  A    between atoms: _634  and  _635
REMARK  246  A    between atoms: _634  and  _637
REMARK  247  A    between atoms: _637  and  _638
REMARK  248  A    between atoms: _643  and  _645
REMARK  249  A    between atoms: _645  and  _646
REMARK  250  A    between atoms: _649  and  _651
REMARK  251  A    between atoms: _651  and  _652
REMARK  252  A    between atoms: _651  and  _654
REMARK  253  A    between atoms: _654  and  _655
REMARK  254  A    between atoms: _655  and  _656
REMARK  255  A    between atoms: _656  and  _657
REMARK  256  A    between atoms: _666  and  _668
REMARK  257  A    between atoms: _668  and  _669
REMARK  258  A    between atoms: _668  and  _671
REMARK  259  A    between atoms: _671  and  _672
REMARK  260  A    between atoms: _675  and  _677
REMARK  261  A    between atoms: _677  and  _678
REMARK  262  A    between atoms: _677  and  _680
REMARK  263  A    between atoms: _680  and  _681
REMARK  264  A    between atoms: _684  and  _686
REMARK  265  A    between atoms: _686  and  _687
REMARK  266  A    between atoms: _686  and  _689
REMARK  267  A    between atoms: _689  and  _690
REMARK                            x       y       z     vdW  Elec       q    Type
REMARK                         _______ _______ _______ _____ _____    ______ ____
ROOT
ATOM      1  CA  CYS A   5       3.199  14.244  16.191  0.00  0.00    +0.160 C 
ENDROOT
BRANCH   1   2
ATOM      2  C   CYS A   5       4.610  13.644  15.931  0.00  0.00    +0.242 C 
ATOM      3  N   ALA A   6       4.700  12.333  15.932  0.00  0.00    -0.297 N 
ATOM      4  H   ALA A   6       3.853  11.746  16.072  0.00  0.00    +0.150 HD
ATOM      5  O   CYS A   5       5.591  14.415  15.759  0.00  0.00    -0.273 OA
BRANCH   3   6
ATOM      6  CA  ALA A   6       6.008  11.711  15.734  0.00  0.00    +0.149 C 
ATOM      7  CB  ALA A   6       5.835  10.186  15.703  0.00  0.00    +0.031 C 
BRANCH   6   8
ATOM      8  C   ALA A   6       6.668  12.153  14.420  0.00  0.00    +0.241 C 
ATOM      9  N   ASP A   7       8.014  12.245  14.484  0.00  0.00    -0.297 N 
ATOM     10  H   ASP A   7       8.484  12.077  15.397  0.00  0.00    +0.150 HD
ATOM     11  O   ALA A   6       5.990  12.363  13.400  0.00  0.00    -0.273 OA
BRANCH   9  12
ATOM     12  CA  ASP A   7       8.834  12.570  13.324  0.00  0.00    +0.160 C 
BRANCH  12  13
ATOM     13  C   ASP A   7       9.384  11.238  12.769  0.00  0.00    +0.241 C 
ATOM     14  N   TYR A   8       9.514  10.244  13.634  0.00  0.00    -0.298 N 
ATOM     15  H   TYR A   8       9.284  10.440  14.629  0.00  0.00    +0.150 HD
ATOM     16  O   ASP A   7       9.658  11.152  11.560  0.00  0.00    -0.273 OA
BRANCH  14  17
ATOM     17  CA  TYR A   8       9.951   8.906  13.301  0.00  0.00    +0.141 C 
BRANCH  17  18
ATOM     18  C   TYR A   8       9.194   7.995  14.279  0.00  0.00    +0.227 C 
ATOM     19  O   TYR A   8       8.919   8.433  15.424  0.00  0.00    -0.286 OA
ENDBRANCH  17  18
BRANCH  17  20
ATOM     20  CB  TYR A   8      11.462   8.724  13.284  0.00  0.00    +0.054 C 
BRANCH  20  21
ATOM     21  CG  TYR A   8      12.199   9.143  14.515  0.00  0.00    -0.020 A 
ATOM     22  CD2 TYR A   8      12.555   8.186  15.487  0.00  0.00    -0.001 A 
ATOM     23  CE2 TYR A   8      13.229   8.582  16.662  0.00  0.00    +0.036 A 
ATOM     24  CZ  TYR A   8      13.580   9.905  16.835  0.00  0.00    +0.134 A 
ATOM     25  CE1 TYR A   8      13.256  10.852  15.874  0.00  0.00    +0.036 A 
ATOM     26  CD1 TYR A   8      12.553  10.456  14.743  0.00  0.00    -0.001 A 
BRANCH  24  27
ATOM     27  OH  TYR A   8      14.273  10.304  17.975  0.00  0.00    -0.506 OA
ATOM     28  HH  TYR A   8      13.733  10.094  18.778  0.00  0.00    +0.292 HD
ENDBRANCH  24  27
ENDBRANCH  20  21
ENDBRANCH  17  20
ENDBRANCH  14  17
ENDBRANCH  12  13
BRANCH  12  29
ATOM     29  CB  ASP A   7       9.988  13.503  13.659  0.00  0.00    +0.143 C 
BRANCH  29  30
ATOM     30  CG  ASP A   7       9.454  14.872  14.094  0.00  0.00    +0.367 C 
ATOM     31  OD2 ASP A   7      10.079  15.423  15.024  0.00  0.00    -0.246 OA
ATOM     32  OD1 ASP A   7       8.473  15.306  13.475  0.00  0.00    -0.246 OA
ENDBRANCH  29  30
ENDBRANCH  12  29
ENDBRANCH   9  12
ENDBRANCH   6   8
ENDBRANCH   3   6
ENDBRANCH   1   2
BRANCH   1  33
ATOM     33  N   CYS A   5       3.326  15.367  17.103  0.00  0.00    -0.296 N 
ATOM     34  C   TRP A   4       2.902  15.413  18.330  0.00  0.00    +0.241 C 
ATOM     35  O   TRP A   4       2.230  14.467  18.849  0.00  0.00    -0.273 OA
ATOM     36  H   CYS A   5       3.802  16.217  16.739  0.00  0.00    +0.150 HD
BRANCH  34  37
ATOM     37  CA  TRP A   4       3.170  16.667  19.179  0.00  0.00    +0.153 C 
BRANCH  37  38
ATOM     38  N   TRP A   4       1.825  17.073  19.628  0.00  0.00    -0.297 N 
ATOM     39  H   TRP A   4       1.196  16.374  20.072  0.00  0.00    +0.150 HD
ATOM     40  C   GLY A   3       1.424  18.291  19.473  0.00  0.00    +0.243 C 
ATOM     41  O   GLY A   3       2.138  19.235  19.071  0.00  0.00    -0.273 OA
BRANCH  40  42
ATOM     42  CA  GLY A   3      -0.023  18.669  19.865  0.00  0.00    +0.176 C 
BRANCH  42  43
ATOM     43  N   GLY A   3       0.060  19.939  20.547  0.00  0.00    -0.295 N 
ATOM     44  C   ALA A   2      -0.633  20.196  21.667  0.00  0.00    +0.241 C 
ATOM     45  O   ALA A   2      -1.425  19.406  22.184  0.00  0.00    -0.273 OA
ATOM     46  H   GLY A   3       0.678  20.679  20.157  0.00  0.00    +0.150 HD
BRANCH  44  47
ATOM     47  CA  ALA A   2      -0.340  21.555  22.254  0.00  0.00    +0.149 C 
ATOM     48  CB  ALA A   2       0.882  21.440  23.186  0.00  0.00    +0.031 C 
BRANCH  47  49
ATOM     49  N   ALA A   2      -1.500  22.044  23.013  0.00  0.00    -0.297 N 
ATOM     50  H   ALA A   2      -2.228  21.383  23.352  0.00  0.00    +0.150 HD
ATOM     51  C   ARG A   1      -1.601  23.334  23.256  0.00  0.00    +0.238 C 
ATOM     52  O   ARG A   1      -0.745  24.155  22.839  0.00  0.00    -0.274 OA
BRANCH  51  53
ATOM     53  CA  ARG A   1      -2.850  23.786  24.091  0.00  0.00    +0.145 C 
BRANCH  53  54
ATOM     54  N   ARG A   1      -2.405  25.070  24.644  0.00  0.00    -0.238 NA
ATOM     55  H   ARG A   1      -2.839  25.965  24.340  0.00  0.00    +0.142 HD
ENDBRANCH  53  54
BRANCH  53  56
ATOM     56  CB  ARG A   1      -4.036  23.877  23.144  0.00  0.00    +0.030 C 
BRANCH  56  57
ATOM     57  CG  ARG A   1      -3.714  24.571  21.839  0.00  0.00    +0.045 C 
BRANCH  57  58
ATOM     58  CD  ARG A   1      -4.292  23.995  20.606  0.00  0.00    +0.174 C 
BRANCH  58  59
ATOM     59  NE  ARG A   1      -4.004  22.620  20.304  0.00  0.00    -0.265 N 
ATOM     60  HE  ARG A   1      -4.571  21.909  20.809  0.00  0.00    +0.259 HD
ATOM     61  CZ  ARG A   1      -3.088  22.148  19.446  0.00  0.00    +0.342 C 
ATOM     62  NH2 ARG A   1      -2.970  20.835  19.290  0.00  0.00    -0.292 N 
ATOM     63 HH21 ARG A   1      -3.583  20.190  19.829  0.00  0.00    +0.255 HD
ATOM     64 HH22 ARG A   1      -2.265  20.451  18.629  0.00  0.00    +0.255 HD
ATOM     65  NH1 ARG A   1      -2.325  22.957  18.736  0.00  0.00    -0.292 N 
ATOM     66 HH11 ARG A   1      -2.426  23.987  18.835  0.00  0.00    +0.255 HD
ATOM     67 HH12 ARG A   1      -1.622  22.564  18.078  0.00  0.00    +0.255 HD
ENDBRANCH  58  59
ENDBRANCH  57  58
ENDBRANCH  56  57
ENDBRANCH  53  56
ENDBRANCH  51  53
ENDBRANCH  47  49
ENDBRANCH  44  47
ENDBRANCH  42  43
ENDBRANCH  40  42
ENDBRANCH  37  38
BRANCH  37  68
ATOM     68  CB  TRP A   4       4.231  16.379  20.231  0.00  0.00    +0.057 C 
BRANCH  68  69
ATOM     69  CG  TRP A   4       5.581  16.027  19.587  0.00  0.00    -0.002 A 
ATOM     70  CD1 TRP A   4       6.133  14.774  19.477  0.00  0.00    +0.068 A 
ATOM     71  NE1 TRP A   4       7.364  14.849  18.851  0.00  0.00    -0.352 N 
ATOM     72  HE1 TRP A   4       7.992  14.047  18.642  0.00  0.00    +0.166 HD
ATOM     73  CE2 TRP A   4       7.612  16.156  18.556  0.00  0.00    +0.056 A 
ATOM     74  CZ2 TRP A   4       8.740  16.707  17.924  0.00  0.00    +0.017 A 
ATOM     75  CH2 TRP A   4       8.773  18.083  17.767  0.00  0.00    +0.001 A 
ATOM     76  CZ3 TRP A   4       7.677  18.877  18.202  0.00  0.00    +0.000 A 
ATOM     77  CE3 TRP A   4       6.560  18.325  18.825  0.00  0.00    +0.001 A 
ATOM     78  CD2 TRP A   4       6.525  16.940  19.009  0.00  0.00    +0.013 A 
ENDBRANCH  68  69
ENDBRANCH  37  68
ENDBRANCH  34  37
ENDBRANCH   1  33
BRANCH   1  79
ATOM     79  CB  CYS A   5       2.623  14.649  14.837  0.00  0.00    +0.098 C 
BRANCH  79  80
ATOM     80  SG  CYS A   5       0.872  15.143  15.014  0.00  0.00    -0.080 S 
BRANCH  80  81
ATOM     81  SG  GLY A   3      -0.087  13.375  15.336  0.00  0.00    -0.080 S 
BRANCH  81  82
ATOM     82  CB  GLY A   3      -0.594  13.339  17.039  0.00  0.00    +0.098 C 
BRANCH  82  83
ATOM     83  CA  GLY A   3       0.162  12.373  17.958  0.00  0.00    +0.160 C 
BRANCH  83  84
ATOM     84  C   GLY A   3      -0.544  12.419  19.310  0.00  0.00    +0.242 C 
ATOM     85  N   TRP A   4      -0.098  13.300  20.185  0.00  0.00    -0.295 N 
ATOM     86  H   TRP A   4       0.707  13.909  19.936  0.00  0.00    +0.150 HD
ATOM     87  O   GLY A   3      -1.508  11.623  19.460  0.00  0.00    -0.273 OA
BRANCH  85  88
ATOM     88  CA  TRP A   4      -0.723  13.430  21.501  0.00  0.00    +0.176 C 
BRANCH  88  89
ATOM     89  C   TRP A   4      -1.148  14.892  21.663  0.00  0.00    +0.243 C 
ATOM     90  N   CYS A   5      -2.388  15.033  22.149  0.00  0.00    -0.297 N 
ATOM     91  H   CYS A   5      -2.950  14.181  22.351  0.00  0.00    +0.150 HD
ATOM     92  O   TRP A   4      -0.406  15.806  21.323  0.00  0.00    -0.273 OA
BRANCH  90  93
ATOM     93  CA  CYS A   5      -2.979  16.352  22.405  0.00  0.00    +0.153 C 
BRANCH  93  94
ATOM     94  C   CYS A   5      -2.780  16.534  23.916  0.00  0.00    +0.241 C 
ATOM     95  O   CYS A   5      -3.119  15.608  24.677  0.00  0.00    -0.273 OA
ATOM     96  N   ALA A   6      -2.242  17.659  24.329  0.00  0.00    -0.298 N 
ATOM     97  H   ALA A   6      -1.970  18.385  23.635  0.00  0.00    +0.150 HD
BRANCH  96  98
ATOM     98  CA  ALA A   6      -2.022  17.901  25.753  0.00  0.00    +0.141 C 
BRANCH  98  99
ATOM     99  C   ALA A   6      -2.009  19.384  26.030  0.00  0.00    +0.227 C 
ATOM    100  O   ALA A   6      -1.996  20.173  25.080  0.00  0.00    -0.286 OA
ENDBRANCH  98  99
BRANCH  98 101
ATOM    101  CB  ALA A   6      -0.624  17.380  26.128  0.00  0.00    +0.054 C 
BRANCH 101 102
ATOM    102  CG  ALA A   6       0.593  17.826  25.361  0.00  0.00    -0.020 A 
ATOM    103  CD2 ALA A   6       1.520  18.698  25.941  0.00  0.00    -0.001 A 
ATOM    104  CE2 ALA A   6       2.672  19.102  25.267  0.00  0.00    +0.036 A 
ATOM    105  CZ  ALA A   6       2.895  18.630  23.977  0.00  0.00    +0.134 A 
ATOM    106  CE1 ALA A   6       2.000  17.783  23.377  0.00  0.00    +0.036 A 
ATOM    107  CD1 ALA A   6       0.858  17.369  24.063  0.00  0.00    -0.001 A 
BRANCH 105 108
ATOM    108  OH  ALA A   6       4.039  19.031  23.310  0.00  0.00    -0.506 OA
ATOM    109  HH  ALA A   6       4.039  20.017  23.220  0.00  0.00    +0.292 HD
ENDBRANCH 105 108
ENDBRANCH 101 102
ENDBRANCH  98 101
ENDBRANCH  96  98
ENDBRANCH  93  94
BRANCH  93 110
ATOM    110  CB  CYS A   5      -4.477  16.381  22.069  0.00  0.00    +0.055 C 
BRANCH 110 111
ATOM    111  CG  CYS A   5      -5.077  17.764  21.956  0.00  0.00    -0.020 A 
ATOM    112  CD2 CYS A   5      -5.264  18.613  23.051  0.00  0.00    -0.001 A 
ATOM    113  CE2 CYS A   5      -5.841  19.860  22.894  0.00  0.00    +0.036 A 
ATOM    114  CZ  CYS A   5      -6.234  20.269  21.627  0.00  0.00    +0.134 A 
ATOM    115  CE1 CYS A   5      -6.067  19.453  20.507  0.00  0.00    +0.036 A 
ATOM    116  CD1 CYS A   5      -5.485  18.197  20.684  0.00  0.00    -0.001 A 
BRANCH 114 117
ATOM    117  OH  CYS A   5      -6.793  21.497  21.405  0.00  0.00    -0.506 OA
ATOM    118  HH  CYS A   5      -6.863  21.986  22.263  0.00  0.00    +0.292 HD
ENDBRANCH 114 117
ENDBRANCH 110 111
ENDBRANCH  93 110
ENDBRANCH  90  93
ENDBRANCH  88  89
BRANCH  88 119
ATOM    119  CB  TRP A   4       0.245  13.050  22.650  0.00  0.00    +0.137 C 
ATOM    120  CG2 TRP A   4      -0.388  13.214  24.038  0.00  0.00    +0.034 C 
BRANCH 119 121
ATOM    121  OG1 TRP A   4       0.565  11.661  22.419  0.00  0.00    -0.382 OA
ATOM    122  HG1 TRP A   4       1.186  11.345  23.122  0.00  0.00    +0.210 HD
ENDBRANCH 119 121
ENDBRANCH  88 119
ENDBRANCH  85  88
ENDBRANCH  83  84
BRANCH  83 124
ATOM    123  C   ALA A   2       1.185  10.442  16.839  0.00  0.00    +0.241 C 
ATOM    124  N   GLY A   3       0.124  10.995  17.447  0.00  0.00    -0.296 N 
ATOM    125  H   GLY A   3      -0.746  10.436  17.559  0.00  0.00    +0.150 HD
ATOM    126  O   ALA A   2       2.240  11.073  16.679  0.00  0.00    -0.273 OA
BRANCH 123 127
ATOM    127  CA  ALA A   2       1.003   9.031  16.354  0.00  0.00    +0.149 C 
BRANCH 127 130
ATOM    128  C   ARG A   1      -1.233   8.903  15.435  0.00  0.00    +0.239 C 
ATOM    129  O   ARG A   1      -1.741   8.905  16.576  0.00  0.00    -0.274 OA
ATOM    130  N   ALA A   2       0.079   8.981  15.198  0.00  0.00    -0.297 N 
ATOM    131  H   ALA A   2       0.443   9.006  14.224  0.00  0.00    +0.150 HD
BRANCH 128 132
ATOM    132  CA  ARG A   1      -2.147   8.826  14.226  0.00  0.00    +0.149 C 
BRANCH 132 133
ATOM    133  N   ARG A   1      -3.061   7.662  14.376  0.00  0.00    -0.238 NA
ATOM    134  H   ARG A   1      -3.399   7.395  15.322  0.00  0.00    +0.142 HD
ENDBRANCH 132 133
BRANCH 132 135
ATOM    135  CB  ARG A   1      -3.007  10.089  14.167  0.00  0.00    +0.053 C 
BRANCH 135 136
ATOM    136  CG  ARG A   1      -2.415  11.298  13.511  0.00  0.00    -0.020 A 
ATOM    137  CD2 ARG A   1      -3.130  12.493  13.632  0.00  0.00    -0.001 A 
ATOM    138  CE2 ARG A   1      -2.703  13.665  13.053  0.00  0.00    +0.036 A 
ATOM    139  CZ  ARG A   1      -1.505  13.651  12.317  0.00  0.00    +0.134 A 
ATOM    140  CE1 ARG A   1      -0.780  12.487  12.189  0.00  0.00    +0.036 A 
ATOM    141  CD1 ARG A   1      -1.224  11.311  12.772  0.00  0.00    -0.001 A 
BRANCH 139 142
ATOM    142  OH  ARG A   1      -1.108  14.847  11.775  0.00  0.00    -0.506 OA
ATOM    143  HH  ARG A   1      -0.259  14.719  11.283  0.00  0.00    +0.292 HD
ENDBRANCH 139 142
ENDBRANCH 135 136
ENDBRANCH 132 135
ENDBRANCH 128 132
ENDBRANCH 127 130
BRANCH 127 144
ATOM    144  CB  ALA A   2       2.335   8.389  15.978  0.00  0.00    +0.029 C 
BRANCH 144 145
ATOM    145  CG  ALA A   2       2.336   6.861  15.927  0.00  0.00    +0.002 C 
ATOM    146  CD2 ALA A   2       2.213   6.312  17.343  0.00  0.00    +0.000 C 
ATOM    147  CD1 ALA A   2       3.569   6.368  15.197  0.00  0.00    +0.000 C 
ENDBRANCH 144 145
ENDBRANCH 127 144
ENDBRANCH 123 127
ENDBRANCH  83 124
ENDBRANCH  82  83
ENDBRANCH  81  82
ENDBRANCH  80  81
ENDBRANCH  79  80
ENDBRANCH   1  79
TORSDOF 57
REMARK  Name = ../refined-set-2016/2olb/2olb_pocket.pdb
REMARK  267 active torsions:
REMARK  status: ('A' for Active; 'I' for Inactive)
REMARK    1  A    between atoms: _1  and  _3
REMARK    2  A    between atoms: _3  and  _4
REMARK    3  A    between atoms: _3  and  _6
REMARK    4  A    between atoms: _6  and  _7
REMARK    5  A    between atoms: _12  and  _14
REMARK    6  A    between atoms: _14  and  _15
REMARK    7  A    between atoms: _17  and  _19
REMARK    8  A    between atoms: _19  and  _20
REMARK    9  A    between atoms: _19  and  _22
REMARK   10  A    between atoms: _22  and  _23
REMARK   11  A    between atoms: _23  and  _24
REMARK   12  A    between atoms: _29  and  _31
REMARK   13  A    between atoms: _31  and  _32
REMARK   14  A    between atoms: _31  and  _34
REMARK   15  A    between atoms: _34  and  _35
REMARK   16  A    between atoms: _38  and  _40
REMARK   17  A    between atoms: _40  and  _41
REMARK   18  A    between atoms: _40  and  _43
REMARK   19  A    between atoms: _43  and  _44
REMARK   20  A    between atoms: _44  and  _45
REMARK   21  A    between atoms: _48  and  _50
REMARK   22  A    between atoms: _50  and  _51
REMARK   23  A    between atoms: _53  and  _55
REMARK   24  A    between atoms: _55  and  _56
REMARK   25  A    between atoms: _55  and  _58
REMARK   26  A    between atoms: _62  and  _63
REMARK   27  A    between atoms: _68  and  _70
REMARK   28  A    between atoms: _70  and  _71
REMARK   29  A    between atoms: _70  and  _73
REMARK   30  A    between atoms: _73  and  _74
REMARK   31  A    between atoms: _74  and  _75
REMARK   32  A    between atoms: _78  and  _80
REMARK   33  A    between atoms: _80  and  _81
REMARK   34  A    between atoms: _80  and  _83
REMARK   35  A    between atoms: _83  and  _84
REMARK   36  A    between atoms: _86  and  _88
REMARK   37  A    between atoms: _88  and  _89
REMARK   38  A    between atoms: _88  and  _91
REMARK   39  A    between atoms: _91  and  _92
REMARK   40  A    between atoms: _97  and  _99
REMARK   41  A    between atoms: _99  and  _100
REMARK   42  A    between atoms: _99  and  _102
REMARK   43  A    between atoms: _102  and  _103
REMARK   44  A    between atoms: _103  and  _104
REMARK   45  A    between atoms: _104  and  _105
REMARK   46  A    between atoms: _115  and  _116
REMARK   47  A    between atoms: _121  and  _123
REMARK   48  A    between atoms: _123  and  _124
REMARK   49  A    between atoms: _123  and  _126
REMARK   50  A    between atoms: _126  and  _127
REMARK   51  A    between atoms: _132  and  _133
REMARK   52  A    between atoms: _135  and  _137
REMARK   53  A    between atoms: _137  and  _138
REMARK   54  A    between atoms: _137  and  _140
REMARK   55  A    between atoms: _140  and  _141
REMARK   56  A    between atoms: _146  and  _147
REMARK   57  A    between atoms: _149  and  _151
REMARK   58  A    between atoms: _151  and  _152
REMARK   59  A    between atoms: _151  and  _154
REMARK   60  A    between atoms: _157  and  _159
REMARK   61  A    between atoms: _159  and  _160
REMARK   62  A    between atoms: _159  and  _162
REMARK   63  A    between atoms: _162  and  _163
REMARK   64  A    between atoms: _169  and  _170
REMARK   65  A    between atoms: _175  and  _177
REMARK   66  A    between atoms: _177  and  _178
REMARK   67  A    between atoms: _177  and  _180
REMARK   68  A    between atoms: _180  and  _181
REMARK   69  A    between atoms: _183  and  _185
REMARK   70  A    between atoms: _185  and  _186
REMARK   71  A    between atoms: _185  and  _188
REMARK   72  A    between atoms: _188  and  _189
REMARK   73  A    between atoms: _189  and  _190
REMARK   74  A    between atoms: _193  and  _195
REMARK   75  A    between atoms: _195  and  _196
REMARK   76  A    between atoms: _195  and  _198
REMARK   77  A    between atoms: _198  and  _199
REMARK   78  A    between atoms: _204  and  _205
REMARK   79  A    between atoms: _207  and  _209
REMARK   80  A    between atoms: _209  and  _210
REMARK   81  A    between atoms: _209  and  _212
REMARK   82  A    between atoms: _212  and  _213
REMARK   83  A    between atoms: _218  and  _220
REMARK   84  A    between atoms: _220  and  _221
REMARK   85  A    between atoms: _220  and  _223
REMARK   86  A    between atoms: _223  and  _224
REMARK   87  A    between atoms: _229  and  _231
REMARK   88  A    between atoms: _231  and  _232
REMARK   89  A    between atoms: _231  and  _234
REMARK   90  A    between atoms: _234  and  _235
REMARK   91  A    between atoms: _235  and  _236
REMARK   92  A    between atoms: _238  and  _240
REMARK   93  A    between atoms: _240  and  _241
REMARK   94  A    between atoms: _240  and  _243
REMARK   95  A    between atoms: _243  and  _244
REMARK   96  A    between atoms: _249  and  _250
REMARK   97  A    between atoms: _252  and  _254
REMARK   98  A    between atoms: _254  and  _255
REMARK   99  A    between atoms: _254  and  _257
REMARK  100  A    between atoms: _257  and  _258
REMARK  101  A    between atoms: _261  and  _263
REMARK  102  A    between atoms: _263  and  _264
REMARK  103  A    between atoms: _263  and  _266
REMARK  104  A    between atoms: _266  and  _267
REMARK  105  A    between atoms: _267  and  _484
REMARK  106  A    between atoms: _268  and  _270
REMARK  107  A    between atoms: _270  and  _271
REMARK  108  A    between atoms: _270  and  _273
REMARK  109  A    between atoms: _273  and  _274
REMARK  110  A    between atoms: _277  and  _279
REMARK  111  A    between atoms: _279  and  _280
REMARK  112  A    between atoms: _279  and  _282
REMARK  113  A    between atoms: _282  and  _283
REMARK  114  A    between atoms: _288  and  _289
REMARK  115  A    between atoms: _291  and  _293
REMARK  116  A    between atoms: _293  and  _294
REMARK  117  A    between atoms: _293  and  _296
REMARK  118  A    between atoms: _296  and  _297
REMARK  119  A    between atoms: _302  and  _303
REMARK  120  A    between atoms: _305  and  _307
REMARK  121  A    between atoms: _307  and  _308
REMARK  122  A    between atoms: _307  and  _310
REMARK  123  A    between atoms: _310  and  _311
REMARK  124  A    between atoms: _311  and  _312
REMARK  125  A    between atoms: _315  and  _317
REMARK  126  A    between atoms: _317  and  _318
REMARK  127  A    between atoms: _317  and  _320
REMARK  128  A    between atoms: _320  and  _321
REMARK  129  A    between atoms: _326  and  _327
REMARK  130  A    between atoms: _329  and  _331
REMARK  131  A    between atoms: _331  and  _332
REMARK  132  A    between atoms: _331  and  _334
REMARK  133  A    between atoms: _334  and  _335
REMARK  134  A    between atoms: _340  and  _342
REMARK  135  A    between atoms: _342  and  _343
REMARK  136  A    between atoms: _342  and  _345
REMARK  137  A    between atoms: _345  and  _346
REMARK  138  A    between atoms: _349  and  _351
REMARK  139  A    between atoms: _351  and  _352
REMARK  140  A    between atoms: _351  and  _354
REMARK  141  A    between atoms: _354  and  _355
REMARK  142  A    between atoms: _360  and  _362
REMARK  143  A    between atoms: _362  and  _363
REMARK  144  A    between atoms: _362  and  _365
REMARK  145  A    between atoms: _365  and  _366
REMARK  146  A    between atoms: _376  and  _378
REMARK  147  A    between atoms: _378  and  _379
REMARK  148  A    between atoms: _378  and  _381
REMARK  149  A    between atoms: _381  and  _382
REMARK  150  A    between atoms: _388  and  _390
REMARK  151  A    between atoms: _390  and  _391
REMARK  152  A    between atoms: _390  and  _393
REMARK  153  A    between atoms: _393  and  _394
REMARK  154  A    between atoms: _397  and  _399
REMARK  155  A    between atoms: _399  and  _400
REMARK  156  A    between atoms: _399  and  _402
REMARK  157  A    between atoms: _402  and  _403
REMARK  158  A    between atoms: _406  and  _408
REMARK  159  A    between atoms: _408  and  _409
REMARK  160  A    between atoms: _408  and  _411
REMARK  161  A    between atoms: _411  and  _412
REMARK  162  A    between atoms: _412  and  _413
REMARK  163  A    between atoms: _413  and  _414
REMARK  164  A    between atoms: _423  and  _425
REMARK  165  A    between atoms: _425  and  _426
REMARK  166  A    between atoms: _425  and  _428
REMARK  167  A    between atoms: _428  and  _429
REMARK  168  A    between atoms: _434  and  _436
REMARK  169  A    between atoms: _436  and  _437
REMARK  170  A    between atoms: _436  and  _439
REMARK  171  A    between atoms: _439  and  _440
REMARK  172  A    between atoms: _440  and  _441
REMARK  173  A    between atoms: _441  and  _442
REMARK  174  A    between atoms: _451  and  _453
REMARK  175  A    between atoms: _453  and  _454
REMARK  176  A    between atoms: _457  and  _459
REMARK  177  A    between atoms: _459  and  _460
REMARK  178  A    between atoms: _462  and  _464
REMARK  179  A    between atoms: _464  and  _465
REMARK  180  A    between atoms: _464  and  _467
REMARK  181  A    between atoms: _467  and  _468
REMARK  182  A    between atoms: _478  and  _480
REMARK  183  A    between atoms: _480  and  _481
REMARK  184  A    between atoms: _480  and  _483
REMARK  185  A    between atoms: _483  and  _484
REMARK  186  A    between atoms: _485  and  _487
REMARK  187  A    between atoms: _487  and  _488
REMARK  188  A    between atoms: _491  and  _493
REMARK  189  A    between atoms: _493  and  _494
REMARK  190  A    between atoms: _493  and  _496
REMARK  191  A    between atoms: _496  and  _497
REMARK  192  A    between atoms: _500  and  _502
REMARK  193  A    between atoms: _502  and  _503
REMARK  194  A    between atoms: _502  and  _505
REMARK  195  A    between atoms: _505  and  _506
REMARK  196  A    between atoms: _511  and  _512
REMARK  197  A    between atoms: _514  and  _516
REMARK  198  A    between atoms: _516  and  _517
REMARK  199  A    between atoms: _516  and  _519
REMARK  200  A    between atoms: _519  and  _520
REMARK  201  A    between atoms: _522  and  _524
REMARK  202  A    between atoms: _524  and  _525
REMARK  203  A    between atoms: _524  and  _527
REMARK  204  A    between atoms: _527  and  _528
REMARK  205  A    between atoms: _534  and  _536
REMARK  206  A    between atoms: _536  and  _537
REMARK  207  A    between atoms: _536  and  _539
REMARK  208  A    between atoms: _539  and  _540
REMARK  209  A    between atoms: _543  and  _545
REMARK  210  A    between atoms: _545  and  _546
REMARK  211  A    between atoms: _545  and  _548
REMARK  212  A    between atoms: _548  and  _549
REMARK  213  A    between atoms: _551  and  _553
REMARK  214  A    between atoms: _553  and  _554
REMARK  215  A    between atoms: _553  and  _556
REMARK  216  A    between atoms: _556  and  _557
REMARK  217  A    between atoms: _559  and  _561
REMARK  218  A    between atoms: _561  and  _562
REMARK  219  A    between atoms: _561  and  _564
REMARK  220  A    between atoms: _564  and  _565
REMARK  221  A    between atoms: _570  and  _572
REMARK  222  A    between atoms: _572  and  _573
REMARK  223  A    between atoms: _572  and  _575
REMARK  224  A    between atoms: _575  and  _576
REMARK  225  A    between atoms: _581  and  _583
REMARK  226  A    between atoms: _583  and  _584
REMARK  227  A    between atoms: _583  and  _586
REMARK  228  A    between atoms: _586  and  _587
REMARK  229  A    between atoms: _590  and  _592
REMARK  230  A    between atoms: _592  and  _593
REMARK  231  A    between atoms: _596  and  _598
REMARK  232  A    between atoms: _598  and  _599
REMARK  233  A    between atoms: _598  and  _601
REMARK  234  A    between atoms: _601  and  _602
REMARK  235  A    between atoms: _607  and  _608
REMARK  236  A    between atoms: _610  and  _612
REMARK  237  A    between atoms: _612  and  _613
REMARK  238  A    between atoms: _612  and  _615
REMARK  239  A    between atoms: _615  and  _616
REMARK  240  A    between atoms: _621  and  _622
REMARK  241  A    between atoms: _624  and  _626
REMARK  242  A    between atoms: _626  and  _627
REMARK  243  A    between atoms: _626  and  _629
REMARK  244  A    between atoms: _632  and  _634
REMARK  245  A    between atoms: _634  and  _635
REMARK  246  A    between atoms: _634  and  _637
REMARK  247  A    between atoms: _637  and  _638
REMARK  248  A    between atoms: _643  and  _645
REMARK  249  A    between atoms: _645  and  _646
REMARK  250  A    between atoms: _649  and  _651
REMARK  251  A    between atoms: _651  and  _652
REMARK  252  A    between atoms: _651  and  _654
REMARK  253  A    between atoms: _654  and  _655
REMARK  254  A    between atoms: _655  and  _656
REMARK  255  A    between atoms: _656  and  _657
REMARK  256  A    between atoms: _666  and  _668
REMARK  257  A    between atoms: _668  and  _669
REMARK  258  A    between atoms: _668  and  _671
REMARK  259  A    between atoms: _671  and  _672
REMARK  260  A    between atoms: _675  and  _677
REMARK  261  A    between atoms: _677  and  _678
REMARK  262  A    between atoms: _677  and  _680
REMARK  263  A    between atoms: _680  and  _681
REMARK  264  A    between atoms: _684  and  _686
REMARK  265  A    between atoms: _686  and  _687
REMARK  266  A    between atoms: _686  and  _689
REMARK  267  A    between atoms: _689  and  _690
REMARK                            x       y       z     vdW  Elec       q    Type
REMARK                         _______ _______ _______ _____ _____    ______ ____
ROOT
ATOM      1  CA  GLU A   1       1.699  22.313  27.757  0.00  0.00    +0.134 C 
ENDROOT
BRANCH   1   2
ATOM      2  N   GLU A   1       0.289  22.051  27.454  0.00  0.00    -0.239 NA
ATOM      3  H   GLU A   1      -0.134  22.501  26.617  0.00  0.00    +0.142 HD
ENDBRANCH   1   2
BRANCH   1   4
ATOM      4  C   GLU A   1       1.784  23.390  28.812  0.00  0.00    +0.224 C 
ATOM      5  O   GLU A   1       1.308  24.525  28.659  0.00  0.00    -0.287 OA
ENDBRANCH   1   4
BRANCH   1   6
ATOM      6  CB  GLU A   1       2.335  22.790  26.443  0.00  0.00    +0.037 C 
BRANCH   6   7
ATOM      7  CG  GLU A   1       3.828  23.152  26.676  0.00  0.00    +0.116 C 
BRANCH   7   8
ATOM      8  CD  GLU A   1       4.330  23.664  25.336  0.00  0.00    +0.365 C 
ATOM      9  OE2 GLU A   1       4.089  24.861  25.028  0.00  0.00    -0.246 OA
ATOM     10  OE1 GLU A   1       4.931  22.816  24.624  0.00  0.00    -0.246 OA
ENDBRANCH   7   8
ENDBRANCH   6   7
ENDBRANCH   1   6
TORSDOF 5
REMARK  Name = ../refined-set-2016/2olb/2olb_pocket.pdb
REMARK  267 active torsions:
REMARK  status: ('A' for Active; 'I' for Inactive)
REMARK    1  A    between atoms: _1  and  _3
REMARK    2  A    between atoms: _3  and  _4
REMARK    3  A    between atoms: _3  and  _6
REMARK    4  A    between atoms: _6  and  _7
REMARK    5  A    between atoms: _12  and  _14
REMARK    6  A    between atoms: _14  and  _15
REMARK    7  A    between atoms: _17  and  _19
REMARK    8  A    between atoms: _19  and  _20
REMARK    9  A    between atoms: _19  and  _22
REMARK   10  A    between atoms: _22  and  _23
REMARK   11  A    between atoms: _23  and  _24
REMARK   12  A    between atoms: _29  and  _31
REMARK   13  A    between atoms: _31  and  _32
REMARK   14  A    between atoms: _31  and  _34
REMARK   15  A    between atoms: _34  and  _35
REMARK   16  A    between atoms: _38  and  _40
REMARK   17  A    between atoms: _40  and  _41
REMARK   18  A    between atoms: _40  and  _43
REMARK   19  A    between atoms: _43  and  _44
REMARK   20  A    between atoms: _44  and  _45
REMARK   21  A    between atoms: _48  and  _50
REMARK   22  A    between atoms: _50  and  _51
REMARK   23  A    between atoms: _53  and  _55
REMARK   24  A    between atoms: _55  and  _56
REMARK   25  A    between atoms: _55  and  _58
REMARK   26  A    between atoms: _62  and  _63
REMARK   27  A    between atoms: _68  and  _70
REMARK   28  A    between atoms: _70  and  _71
REMARK   29  A    between atoms: _70  and  _73
REMARK   30  A    between atoms: _73  and  _74
REMARK   31  A    between atoms: _74  and  _75
REMARK   32  A    between atoms: _78  and  _80
REMARK   33  A    between atoms: _80  and  _81
REMARK   34  A    between atoms: _80  and  _83
REMARK   35  A    between atoms: _83  and  _84
REMARK   36  A    between atoms: _86  and  _88
REMARK   37  A    between atoms: _88  and  _89
REMARK   38  A    between atoms: _88  and  _91
REMARK   39  A    between atoms: _91  and  _92
REMARK   40  A    between atoms: _97  and  _99
REMARK   41  A    between atoms: _99  and  _100
REMARK   42  A    between atoms: _99  and  _102
REMARK   43  A    between atoms: _102  and  _103
REMARK   44  A    between atoms: _103  and  _104
REMARK   45  A    between atoms: _104  and  _105
REMARK   46  A    between atoms: _115  and  _116
REMARK   47  A    between atoms: _121  and  _123
REMARK   48  A    between atoms: _123  and  _124
REMARK   49  A    between atoms: _123  and  _126
REMARK   50  A    between atoms: _126  and  _127
REMARK   51  A    between atoms: _132  and  _133
REMARK   52  A    between atoms: _135  and  _137
REMARK   53  A    between atoms: _137  and  _138
REMARK   54  A    between atoms: _137  and  _140
REMARK   55  A    between atoms: _140  and  _141
REMARK   56  A    between atoms: _146  and  _147
REMARK   57  A    between atoms: _149  and  _151
REMARK   58  A    between atoms: _151  and  _152
REMARK   59  A    between atoms: _151  and  _154
REMARK   60  A    between atoms: _157  and  _159
REMARK   61  A    between atoms: _159  and  _160
REMARK   62  A    between atoms: _159  and  _162
REMARK   63  A    between atoms: _162  and  _163
REMARK   64  A    between atoms: _169  and  _170
REMARK   65  A    between atoms: _175  and  _177
REMARK   66  A    between atoms: _177  and  _178
REMARK   67  A    between atoms: _177  and  _180
REMARK   68  A    between atoms: _180  and  _181
REMARK   69  A    between atoms: _183  and  _185
REMARK   70  A    between atoms: _185  and  _186
REMARK   71  A    between atoms: _185  and  _188
REMARK   72  A    between atoms: _188  and  _189
REMARK   73  A    between atoms: _189  and  _190
REMARK   74  A    between atoms: _193  and  _195
REMARK   75  A    between atoms: _195  and  _196
REMARK   76  A    between atoms: _195  and  _198
REMARK   77  A    between atoms: _198  and  _199
REMARK   78  A    between atoms: _204  and  _205
REMARK   79  A    between atoms: _207  and  _209
REMARK   80  A    between atoms: _209  and  _210
REMARK   81  A    between atoms: _209  and  _212
REMARK   82  A    between atoms: _212  and  _213
REMARK   83  A    between atoms: _218  and  _220
REMARK   84  A    between atoms: _220  and  _221
REMARK   85  A    between atoms: _220  and  _223
REMARK   86  A    between atoms: _223  and  _224
REMARK   87  A    between atoms: _229  and  _231
REMARK   88  A    between atoms: _231  and  _232
REMARK   89  A    between atoms: _231  and  _234
REMARK   90  A    between atoms: _234  and  _235
REMARK   91  A    between atoms: _235  and  _236
REMARK   92  A    between atoms: _238  and  _240
REMARK   93  A    between atoms: _240  and  _241
REMARK   94  A    between atoms: _240  and  _243
REMARK   95  A    between atoms: _243  and  _244
REMARK   96  A    between atoms: _249  and  _250
REMARK   97  A    between atoms: _252  and  _254
REMARK   98  A    between atoms: _254  and  _255
REMARK   99  A    between atoms: _254  and  _257
REMARK  100  A    between atoms: _257  and  _258
REMARK  101  A    between atoms: _261  and  _263
REMARK  102  A    between atoms: _263  and  _264
REMARK  103  A    between atoms: _263  and  _266
REMARK  104  A    between atoms: _266  and  _267
REMARK  105  A    between atoms: _267  and  _484
REMARK  106  A    between atoms: _268  and  _270
REMARK  107  A    between atoms: _270  and  _271
REMARK  108  A    between atoms: _270  and  _273
REMARK  109  A    between atoms: _273  and  _274
REMARK  110  A    between atoms: _277  and  _279
REMARK  111  A    between atoms: _279  and  _280
REMARK  112  A    between atoms: _279  and  _282
REMARK  113  A    between atoms: _282  and  _283
REMARK  114  A    between atoms: _288  and  _289
REMARK  115  A    between atoms: _291  and  _293
REMARK  116  A    between atoms: _293  and  _294
REMARK  117  A    between atoms: _293  and  _296
REMARK  118  A    between atoms: _296  and  _297
REMARK  119  A    between atoms: _302  and  _303
REMARK  120  A    between atoms: _305  and  _307
REMARK  121  A    between atoms: _307  and  _308
REMARK  122  A    between atoms: _307  and  _310
REMARK  123  A    between atoms: _310  and  _311
REMARK  124  A    between atoms: _311  and  _312
REMARK  125  A    between atoms: _315  and  _317
REMARK  126  A    between atoms: _317  and  _318
REMARK  127  A    between atoms: _317  and  _320
REMARK  128  A    between atoms: _320  and  _321
REMARK  129  A    between atoms: _326  and  _327
REMARK  130  A    between atoms: _329  and  _331
REMARK  131  A    between atoms: _331  and  _332
REMARK  132  A    between atoms: _331  and  _334
REMARK  133  A    between atoms: _334  and  _335
REMARK  134  A    between atoms: _340  and  _342
REMARK  135  A    between atoms: _342  and  _343
REMARK  136  A    between atoms: _342  and  _345
REMARK  137  A    between atoms: _345  and  _346
REMARK  138  A    between atoms: _349  and  _351
REMARK  139  A    between atoms: _351  and  _352
REMARK  140  A    between atoms: _351  and  _354
REMARK  141  A    between atoms: _354  and  _355
REMARK  142  A    between atoms: _360  and  _362
REMARK  143  A    between atoms: _362  and  _363
REMARK  144  A    between atoms: _362  and  _365
REMARK  145  A    between atoms: _365  and  _366
REMARK  146  A    between atoms: _376  and  _378
REMARK  147  A    between atoms: _378  and  _379
REMARK  148  A    between atoms: _378  and  _381
REMARK  149  A    between atoms: _381  and  _382
REMARK  150  A    between atoms: _388  and  _390
REMARK  151  A    between atoms: _390  and  _391
REMARK  152  A    between atoms: _390  and  _393
REMARK  153  A    between atoms: _393  and  _394
REMARK  154  A    between atoms: _397  and  _399
REMARK  155  A    between atoms: _399  and  _400
REMARK  156  A    between atoms: _399  and  _402
REMARK  157  A    between atoms: _402  and  _403
REMARK  158  A    between atoms: _406  and  _408
REMARK  159  A    between atoms: _408  and  _409
REMARK  160  A    between atoms: _408  and  _411
REMARK  161  A    between atoms: _411  and  _412
REMARK  162  A    between atoms: _412  and  _413
REMARK  163  A    between atoms: _413  and  _414
REMARK  164  A    between atoms: _423  and  _425
REMARK  165  A    between atoms: _425  and  _426
REMARK  166  A    between atoms: _425  and  _428
REMARK  167  A    between atoms: _428  and  _429
REMARK  168  A    between atoms: _434  and  _436
REMARK  169  A    between atoms: _436  and  _437
REMARK  170  A    between atoms: _436  and  _439
REMARK  171  A    between atoms: _439  and  _440
REMARK  172  A    between atoms: _440  and  _441
REMARK  173  A    between atoms: _441  and  _442
REMARK  174  A    between atoms: _451  and  _453
REMARK  175  A    between atoms: _453  and  _454
REMARK  176  A    between atoms: _457  and  _459
REMARK  177  A    between atoms: _459  and  _460
REMARK  178  A    between atoms: _462  and  _464
REMARK  179  A    between atoms: _464  and  _465
REMARK  180  A    between atoms: _464  and  _467
REMARK  181  A    between atoms: _467  and  _468
REMARK  182  A    between atoms: _478  and  _480
REMARK  183  A    between atoms: _480  and  _481
REMARK  184  A    between atoms: _480  and  _483
REMARK  185  A    between atoms: _483  and  _484
REMARK  186  A    between atoms: _485  and  _487
REMARK  187  A    between atoms: _487  and  _488
REMARK  188  A    between atoms: _491  and  _493
REMARK  189  A    between atoms: _493  and  _494
REMARK  190  A    between atoms: _493  and  _496
REMARK  191  A    between atoms: _496  and  _497
REMARK  192  A    between atoms: _500  and  _502
REMARK  193  A    between atoms: _502  and  _503
REMARK  194  A    between atoms: _502  and  _505
REMARK  195  A    between atoms: _505  and  _506
REMARK  196  A    between atoms: _511  and  _512
REMARK  197  A    between atoms: _514  and  _516
REMARK  198  A    between atoms: _516  and  _517
REMARK  199  A    between atoms: _516  and  _519
REMARK  200  A    between atoms: _519  and  _520
REMARK  201  A    between atoms: _522  and  _524
REMARK  202  A    between atoms: _524  and  _525
REMARK  203  A    between atoms: _524  and  _527
REMARK  204  A    between atoms: _527  and  _528
REMARK  205  A    between atoms: _534  and  _536
REMARK  206  A    between atoms: _536  and  _537
REMARK  207  A    between atoms: _536  and  _539
REMARK  208  A    between atoms: _539  and  _540
REMARK  209  A    between atoms: _543  and  _545
REMARK  210  A    between atoms: _545  and  _546
REMARK  211  A    between atoms: _545  and  _548
REMARK  212  A    between atoms: _548  and  _549
REMARK  213  A    between atoms: _551  and  _553
REMARK  214  A    between atoms: _553  and  _554
REMARK  215  A    between atoms: _553  and  _556
REMARK  216  A    between atoms: _556  and  _557
REMARK  217  A    between atoms: _559  and  _561
REMARK  218  A    between atoms: _561  and  _562
REMARK  219  A    between atoms: _561  and  _564
REMARK  220  A    between atoms: _564  and  _565
REMARK  221  A    between atoms: _570  and  _572
REMARK  222  A    between atoms: _572  and  _573
REMARK  223  A    between atoms: _572  and  _575
REMARK  224  A    between atoms: _575  and  _576
REMARK  225  A    between atoms: _581  and  _583
REMARK  226  A    between atoms: _583  and  _584
REMARK  227  A    between atoms: _583  and  _586
REMARK  228  A    between atoms: _586  and  _587
REMARK  229  A    between atoms: _590  and  _592
REMARK  230  A    between atoms: _592  and  _593
REMARK  231  A    between atoms: _596  and  _598
REMARK  232  A    between atoms: _598  and  _599
REMARK  233  A    between atoms: _598  and  _601
REMARK  234  A    between atoms: _601  and  _602
REMARK  235  A    between atoms: _607  and  _608
REMARK  236  A    between atoms: _610  and  _612
REMARK  237  A    between atoms: _612  and  _613
REMARK  238  A    between atoms: _612  and  _615
REMARK  239  A    between atoms: _615  and  _616
REMARK  240  A    between atoms: _621  and  _622
REMARK  241  A    between atoms: _624  and  _626
REMARK  242  A    between atoms: _626  and  _627
REMARK  243  A    between atoms: _626  and  _629
REMARK  244  A    between atoms: _632  and  _634
REMARK  245  A    between atoms: _634  and  _635
REMARK  246  A    between atoms: _634  and  _637
REMARK  247  A    between atoms: _637  and  _638
REMARK  248  A    between atoms: _643  and  _645
REMARK  249  A    between atoms: _645  and  _646
REMARK  250  A    between atoms: _649  and  _651
REMARK  251  A    between atoms: _651  and  _652
REMARK  252  A    between atoms: _651  and  _654
REMARK  253  A    between atoms: _654  and  _655
REMARK  254  A    between atoms: _655  and  _656
REMARK  255  A    between atoms: _656  and  _657
REMARK  256  A    between atoms: _666  and  _668
REMARK  257  A    between atoms: _668  and  _669
REMARK  258  A    between atoms: _668  and  _671
REMARK  259  A    between atoms: _671  and  _672
REMARK  260  A    between atoms: _675  and  _677
REMARK  261  A    between atoms: _677  and  _678
REMARK  262  A    between atoms: _677  and  _680
REMARK  263  A    between atoms: _680  and  _681
REMARK  264  A    between atoms: _684  and  _686
REMARK  265  A    between atoms: _686  and  _687
REMARK  266  A    between atoms: _686  and  _689
REMARK  267  A    between atoms: _689  and  _690
REMARK                            x       y       z     vdW  Elec       q    Type
REMARK                         _______ _______ _______ _____ _____    ______ ____
ROOT
ATOM      1  CG  TYR A   1       5.063  13.718  25.651  0.00  0.00    -0.020 A 
ATOM      2  CD2 TYR A   1       6.443  13.799  25.405  0.00  0.00    -0.001 A 
ATOM      3  CE2 TYR A   1       6.929  14.732  24.514  0.00  0.00    +0.036 A 
ATOM      4  CZ  TYR A   1       6.064  15.598  23.858  0.00  0.00    +0.134 A 
ATOM      5  CE1 TYR A   1       4.707  15.521  24.087  0.00  0.00    +0.036 A 
ATOM      6  CD1 TYR A   1       4.213  14.583  24.977  0.00  0.00    -0.001 A 
ENDROOT
BRANCH   4   7
ATOM      7  OH  TYR A   1       6.568  16.545  22.974  0.00  0.00    -0.506 OA
ATOM      8  HH  TYR A   1       7.190  17.146  23.455  0.00  0.00    +0.292 HD
ENDBRANCH   4   7
BRANCH   1   9
ATOM      9  CB  TYR A   1       4.515  12.700  26.636  0.00  0.00    +0.051 C 
BRANCH   9  10
ATOM     10  CA  TYR A   1       3.225  12.019  26.262  0.00  0.00    +0.137 C 
BRANCH  10  11
ATOM     11  N   TYR A   1       2.852  11.117  27.381  0.00  0.00    -0.239 NA
ATOM     12  H   TYR A   1       3.590  10.701  27.985  0.00  0.00    +0.142 HD
ENDBRANCH  10  11
BRANCH  10  13
ATOM     13  C   TYR A   1       3.344  11.165  25.017  0.00  0.00    +0.224 C 
ATOM     14  O   TYR A   1       2.658  11.311  24.005  0.00  0.00    -0.287 OA
ENDBRANCH  10  13
ENDBRANCH   9  10
ENDBRANCH   1   9
TORSDOF 5
REMARK  Name = ../refined-set-2016/2olb/2olb_pocket.pdb
REMARK  267 active torsions:
REMARK  status: ('A' for Active; 'I' for Inactive)
REMARK    1  A    between atoms: _1  and  _3
REMARK    2  A    between atoms: _3  and  _4
REMARK    3  A    between atoms: _3  and  _6
REMARK    4  A    between atoms: _6  and  _7
REMARK    5  A    between atoms: _12  and  _14
REMARK    6  A    between atoms: _14  and  _15
REMARK    7  A    between atoms: _17  and  _19
REMARK    8  A    between atoms: _19  and  _20
REMARK    9  A    between atoms: _19  and  _22
REMARK   10  A    between atoms: _22  and  _23
REMARK   11  A    between atoms: _23  and  _24
REMARK   12  A    between atoms: _29  and  _31
REMARK   13  A    between atoms: _31  and  _32
REMARK   14  A    between atoms: _31  and  _34
REMARK   15  A    between atoms: _34  and  _35
REMARK   16  A    between atoms: _38  and  _40
REMARK   17  A    between atoms: _40  and  _41
REMARK   18  A    between atoms: _40  and  _43
REMARK   19  A    between atoms: _43  and  _44
REMARK   20  A    between atoms: _44  and  _45
REMARK   21  A    between atoms: _48  and  _50
REMARK   22  A    between atoms: _50  and  _51
REMARK   23  A    between atoms: _53  and  _55
REMARK   24  A    between atoms: _55  and  _56
REMARK   25  A    between atoms: _55  and  _58
REMARK   26  A    between atoms: _62  and  _63
REMARK   27  A    between atoms: _68  and  _70
REMARK   28  A    between atoms: _70  and  _71
REMARK   29  A    between atoms: _70  and  _73
REMARK   30  A    between atoms: _73  and  _74
REMARK   31  A    between atoms: _74  and  _75
REMARK   32  A    between atoms: _78  and  _80
REMARK   33  A    between atoms: _80  and  _81
REMARK   34  A    between atoms: _80  and  _83
REMARK   35  A    between atoms: _83  and  _84
REMARK   36  A    between atoms: _86  and  _88
REMARK   37  A    between atoms: _88  and  _89
REMARK   38  A    between atoms: _88  and  _91
REMARK   39  A    between atoms: _91  and  _92
REMARK   40  A    between atoms: _97  and  _99
REMARK   41  A    between atoms: _99  and  _100
REMARK   42  A    between atoms: _99  and  _102
REMARK   43  A    between atoms: _102  and  _103
REMARK   44  A    between atoms: _103  and  _104
REMARK   45  A    between atoms: _104  and  _105
REMARK   46  A    between atoms: _115  and  _116
REMARK   47  A    between atoms: _121  and  _123
REMARK   48  A    between atoms: _123  and  _124
REMARK   49  A    between atoms: _123  and  _126
REMARK   50  A    between atoms: _126  and  _127
REMARK   51  A    between atoms: _132  and  _133
REMARK   52  A    between atoms: _135  and  _137
REMARK   53  A    between atoms: _137  and  _138
REMARK   54  A    between atoms: _137  and  _140
REMARK   55  A    between atoms: _140  and  _141
REMARK   56  A    between atoms: _146  and  _147
REMARK   57  A    between atoms: _149  and  _151
REMARK   58  A    between atoms: _151  and  _152
REMARK   59  A    between atoms: _151  and  _154
REMARK   60  A    between atoms: _157  and  _159
REMARK   61  A    between atoms: _159  and  _160
REMARK   62  A    between atoms: _159  and  _162
REMARK   63  A    between atoms: _162  and  _163
REMARK   64  A    between atoms: _169  and  _170
REMARK   65  A    between atoms: _175  and  _177
REMARK   66  A    between atoms: _177  and  _178
REMARK   67  A    between atoms: _177  and  _180
REMARK   68  A    between atoms: _180  and  _181
REMARK   69  A    between atoms: _183  and  _185
REMARK   70  A    between atoms: _185  and  _186
REMARK   71  A    between atoms: _185  and  _188
REMARK   72  A    between atoms: _188  and  _189
REMARK   73  A    between atoms: _189  and  _190
REMARK   74  A    between atoms: _193  and  _195
REMARK   75  A    between atoms: _195  and  _196
REMARK   76  A    between atoms: _195  and  _198
REMARK   77  A    between atoms: _198  and  _199
REMARK   78  A    between atoms: _204  and  _205
REMARK   79  A    between atoms: _207  and  _209
REMARK   80  A    between atoms: _209  and  _210
REMARK   81  A    between atoms: _209  and  _212
REMARK   82  A    between atoms: _212  and  _213
REMARK   83  A    between atoms: _218  and  _220
REMARK   84  A    between atoms: _220  and  _221
REMARK   85  A    between atoms: _220  and  _223
REMARK   86  A    between atoms: _223  and  _224
REMARK   87  A    between atoms: _229  and  _231
REMARK   88  A    between atoms: _231  and  _232
REMARK   89  A    between atoms: _231  and  _234
REMARK   90  A    between atoms: _234  and  _235
REMARK   91  A    between atoms: _235  and  _236
REMARK   92  A    between atoms: _238  and  _240
REMARK   93  A    between atoms: _240  and  _241
REMARK   94  A    between atoms: _240  and  _243
REMARK   95  A    between atoms: _243  and  _244
REMARK   96  A    between atoms: _249  and  _250
REMARK   97  A    between atoms: _252  and  _254
REMARK   98  A    between atoms: _254  and  _255
REMARK   99  A    between atoms: _254  and  _257
REMARK  100  A    between atoms: _257  and  _258
REMARK  101  A    between atoms: _261  and  _263
REMARK  102  A    between atoms: _263  and  _264
REMARK  103  A    between atoms: _263  and  _266
REMARK  104  A    between atoms: _266  and  _267
REMARK  105  A    between atoms: _267  and  _484
REMARK  106  A    between atoms: _268  and  _270
REMARK  107  A    between atoms: _270  and  _271
REMARK  108  A    between atoms: _270  and  _273
REMARK  109  A    between atoms: _273  and  _274
REMARK  110  A    between atoms: _277  and  _279
REMARK  111  A    between atoms: _279  and  _280
REMARK  112  A    between atoms: _279  and  _282
REMARK  113  A    between atoms: _282  and  _283
REMARK  114  A    between atoms: _288  and  _289
REMARK  115  A    between atoms: _291  and  _293
REMARK  116  A    between atoms: _293  and  _294
REMARK  117  A    between atoms: _293  and  _296
REMARK  118  A    between atoms: _296  and  _297
REMARK  119  A    between atoms: _302  and  _303
REMARK  120  A    between atoms: _305  and  _307
REMARK  121  A    between atoms: _307  and  _308
REMARK  122  A    between atoms: _307  and  _310
REMARK  123  A    between atoms: _310  and  _311
REMARK  124  A    between atoms: _311  and  _312
REMARK  125  A    between atoms: _315  and  _317
REMARK  126  A    between atoms: _317  and  _318
REMARK  127  A    between atoms: _317  and  _320
REMARK  128  A    between atoms: _320  and  _321
REMARK  129  A    between atoms: _326  and  _327
REMARK  130  A    between atoms: _329  and  _331
REMARK  131  A    between atoms: _331  and  _332
REMARK  132  A    between atoms: _331  and  _334
REMARK  133  A    between atoms: _334  and  _335
REMARK  134  A    between atoms: _340  and  _342
REMARK  135  A    between atoms: _342  and  _343
REMARK  136  A    between atoms: _342  and  _345
REMARK  137  A    between atoms: _345  and  _346
REMARK  138  A    between atoms: _349  and  _351
REMARK  139  A    between atoms: _351  and  _352
REMARK  140  A    between atoms: _351  and  _354
REMARK  141  A    between atoms: _354  and  _355
REMARK  142  A    between atoms: _360  and  _362
REMARK  143  A    between atoms: _362  and  _363
REMARK  144  A    between atoms: _362  and  _365
REMARK  145  A    between atoms: _365  and  _366
REMARK  146  A    between atoms: _376  and  _378
REMARK  147  A    between atoms: _378  and  _379
REMARK  148  A    between atoms: _378  and  _381
REMARK  149  A    between atoms: _381  and  _382
REMARK  150  A    between atoms: _388  and  _390
REMARK  151  A    between atoms: _390  and  _391
REMARK  152  A    between atoms: _390  and  _393
REMARK  153  A    between atoms: _393  and  _394
REMARK  154  A    between atoms: _397  and  _399
REMARK  155  A    between atoms: _399  and  _400
REMARK  156  A    between atoms: _399  and  _402
REMARK  157  A    between atoms: _402  and  _403
REMARK  158  A    between atoms: _406  and  _408
REMARK  159  A    between atoms: _408  and  _409
REMARK  160  A    between atoms: _408  and  _411
REMARK  161  A    between atoms: _411  and  _412
REMARK  162  A    between atoms: _412  and  _413
REMARK  163  A    between atoms: _413  and  _414
REMARK  164  A    between atoms: _423  and  _425
REMARK  165  A    between atoms: _425  and  _426
REMARK  166  A    between atoms: _425  and  _428
REMARK  167  A    between atoms: _428  and  _429
REMARK  168  A    between atoms: _434  and  _436
REMARK  169  A    between atoms: _436  and  _437
REMARK  170  A    between atoms: _436  and  _439
REMARK  171  A    between atoms: _439  and  _440
REMARK  172  A    between atoms: _440  and  _441
REMARK  173  A    between atoms: _441  and  _442
REMARK  174  A    between atoms: _451  and  _453
REMARK  175  A    between atoms: _453  and  _454
REMARK  176  A    between atoms: _457  and  _459
REMARK  177  A    between atoms: _459  and  _460
REMARK  178  A    between atoms: _462  and  _464
REMARK  179  A    between atoms: _464  and  _465
REMARK  180  A    between atoms: _464  and  _467
REMARK  181  A    between atoms: _467  and  _468
REMARK  182  A    between atoms: _478  and  _480
REMARK  183  A    between atoms: _480  and  _481
REMARK  184  A    between atoms: _480  and  _483
REMARK  185  A    between atoms: _483  and  _484
REMARK  186  A    between atoms: _485  and  _487
REMARK  187  A    between atoms: _487  and  _488
REMARK  188  A    between atoms: _491  and  _493
REMARK  189  A    between atoms: _493  and  _494
REMARK  190  A    between atoms: _493  and  _496
REMARK  191  A    between atoms: _496  and  _497
REMARK  192  A    between atoms: _500  and  _502
REMARK  193  A    between atoms: _502  and  _503
REMARK  194  A    between atoms: _502  and  _505
REMARK  195  A    between atoms: _505  and  _506
REMARK  196  A    between atoms: _511  and  _512
REMARK  197  A    between atoms: _514  and  _516
REMARK  198  A    between atoms: _516  and  _517
REMARK  199  A    between atoms: _516  and  _519
REMARK  200  A    between atoms: _519  and  _520
REMARK  201  A    between atoms: _522  and  _524
REMARK  202  A    between atoms: _524  and  _525
REMARK  203  A    between atoms: _524  and  _527
REMARK  204  A    between atoms: _527  and  _528
REMARK  205  A    between atoms: _534  and  _536
REMARK  206  A    between atoms: _536  and  _537
REMARK  207  A    between atoms: _536  and  _539
REMARK  208  A    between atoms: _539  and  _540
REMARK  209  A    between atoms: _543  and  _545
REMARK  210  A    between atoms: _545  and  _546
REMARK  211  A    between atoms: _545  and  _548
REMARK  212  A    between atoms: _548  and  _549
REMARK  213  A    between atoms: _551  and  _553
REMARK  214  A    between atoms: _553  and  _554
REMARK  215  A    between atoms: _553  and  _556
REMARK  216  A    between atoms: _556  and  _557
REMARK  217  A    between atoms: _559  and  _561
REMARK  218  A    between atoms: _561  and  _562
REMARK  219  A    between atoms: _561  and  _564
REMARK  220  A    between atoms: _564  and  _565
REMARK  221  A    between atoms: _570  and  _572
REMARK  222  A    between atoms: _572  and  _573
REMARK  223  A    between atoms: _572  and  _575
REMARK  224  A    between atoms: _575  and  _576
REMARK  225  A    between atoms: _581  and  _583
REMARK  226  A    between atoms: _583  and  _584
REMARK  227  A    between atoms: _583  and  _586
REMARK  228  A    between atoms: _586  and  _587
REMARK  229  A    between atoms: _590  and  _592
REMARK  230  A    between atoms: _592  and  _593
REMARK  231  A    between atoms: _596  and  _598
REMARK  232  A    between atoms: _598  and  _599
REMARK  233  A    between atoms: _598  and  _601
REMARK  234  A    between atoms: _601  and  _602
REMARK  235  A    between atoms: _607  and  _608
REMARK  236  A    between atoms: _610  and  _612
REMARK  237  A    between atoms: _612  and  _613
REMARK  238  A    between atoms: _612  and  _615
REMARK  239  A    between atoms: _615  and  _616
REMARK  240  A    between atoms: _621  and  _622
REMARK  241  A    between atoms: _624  and  _626
REMARK  242  A    between atoms: _626  and  _627
REMARK  243  A    between atoms: _626  and  _629
REMARK  244  A    between atoms: _632  and  _634
REMARK  245  A    between atoms: _634  and  _635
REMARK  246  A    between atoms: _634  and  _637
REMARK  247  A    between atoms: _637  and  _638
REMARK  248  A    between atoms: _643  and  _645
REMARK  249  A    between atoms: _645  and  _646
REMARK  250  A    between atoms: _649  and  _651
REMARK  251  A    between atoms: _651  and  _652
REMARK  252  A    between atoms: _651  and  _654
REMARK  253  A    between atoms: _654  and  _655
REMARK  254  A    between atoms: _655  and  _656
REMARK  255  A    between atoms: _656  and  _657
REMARK  256  A    between atoms: _666  and  _668
REMARK  257  A    between atoms: _668  and  _669
REMARK  258  A    between atoms: _668  and  _671
REMARK  259  A    between atoms: _671  and  _672
REMARK  260  A    between atoms: _675  and  _677
REMARK  261  A    between atoms: _677  and  _678
REMARK  262  A    between atoms: _677  and  _680
REMARK  263  A    between atoms: _680  and  _681
REMARK  264  A    between atoms: _684  and  _686
REMARK  265  A    between atoms: _686  and  _687
REMARK  266  A    between atoms: _686  and  _689
REMARK  267  A    between atoms: _689  and  _690
REMARK                            x       y       z     vdW  Elec       q    Type
REMARK                         _______ _______ _______ _____ _____    ______ ____
ROOT
ATOM      1  CB  ASN A   1      -2.853  27.824  17.079  0.00  0.00    +0.110 C 
ENDROOT
BRANCH   1   2
ATOM      2  CG  ASN A   1      -3.182  26.337  17.052  0.00  0.00    +0.221 C 
ATOM      3  OD1 ASN A   1      -3.118  25.699  18.116  0.00  0.00    -0.275 OA
ATOM      4  ND2 ASN A   1      -3.503  25.811  15.852  0.00  0.00    -0.329 N 
ATOM      5 HD21 ASN A   1      -3.720  24.797  15.770  0.00  0.00    +0.145 HD
ATOM      6 HD22 ASN A   1      -3.533  26.419  15.009  0.00  0.00    +0.145 HD
ENDBRANCH   1   2
BRANCH   1   7
ATOM      7  CA  ASN A   1      -3.734  28.679  17.988  0.00  0.00    +0.142 C 
BRANCH   7   8
ATOM      8  N   ASN A   1      -3.815  28.133  19.341  0.00  0.00    -0.239 NA
ATOM      9  H   ASN A   1      -3.635  27.120  19.492  0.00  0.00    +0.142 HD
ENDBRANCH   7   8
BRANCH   7  10
ATOM     10  C   ASN A   1      -5.185  28.735  17.441  0.00  0.00    +0.225 C 
ATOM     11  O   ASN A   1      -5.966  27.793  17.564  0.00  0.00    -0.287 OA
ENDBRANCH   7  10
ENDBRANCH   1   7
TORSDOF 4
REMARK  Name = ../refined-set-2016/2olb/2olb_pocket.pdb
REMARK  267 active torsions:
REMARK  status: ('A' for Active; 'I' for Inactive)
REMARK    1  A    between atoms: _1  and  _3
REMARK    2  A    between atoms: _3  and  _4
REMARK    3  A    between atoms: _3  and  _6
REMARK    4  A    between atoms: _6  and  _7
REMARK    5  A    between atoms: _12  and  _14
REMARK    6  A    between atoms: _14  and  _15
REMARK    7  A    between atoms: _17  and  _19
REMARK    8  A    between atoms: _19  and  _20
REMARK    9  A    between atoms: _19  and  _22
REMARK   10  A    between atoms: _22  and  _23
REMARK   11  A    between atoms: _23  and  _24
REMARK   12  A    between atoms: _29  and  _31
REMARK   13  A    between atoms: _31  and  _32
REMARK   14  A    between atoms: _31  and  _34
REMARK   15  A    between atoms: _34  and  _35
REMARK   16  A    between atoms: _38  and  _40
REMARK   17  A    between atoms: _40  and  _41
REMARK   18  A    between atoms: _40  and  _43
REMARK   19  A    between atoms: _43  and  _44
REMARK   20  A    between atoms: _44  and  _45
REMARK   21  A    between atoms: _48  and  _50
REMARK   22  A    between atoms: _50  and  _51
REMARK   23  A    between atoms: _53  and  _55
REMARK   24  A    between atoms: _55  and  _56
REMARK   25  A    between atoms: _55  and  _58
REMARK   26  A    between atoms: _62  and  _63
REMARK   27  A    between atoms: _68  and  _70
REMARK   28  A    between atoms: _70  and  _71
REMARK   29  A    between atoms: _70  and  _73
REMARK   30  A    between atoms: _73  and  _74
REMARK   31  A    between atoms: _74  and  _75
REMARK   32  A    between atoms: _78  and  _80
REMARK   33  A    between atoms: _80  and  _81
REMARK   34  A    between atoms: _80  and  _83
REMARK   35  A    between atoms: _83  and  _84
REMARK   36  A    between atoms: _86  and  _88
REMARK   37  A    between atoms: _88  and  _89
REMARK   38  A    between atoms: _88  and  _91
REMARK   39  A    between atoms: _91  and  _92
REMARK   40  A    between atoms: _97  and  _99
REMARK   41  A    between atoms: _99  and  _100
REMARK   42  A    between atoms: _99  and  _102
REMARK   43  A    between atoms: _102  and  _103
REMARK   44  A    between atoms: _103  and  _104
REMARK   45  A    between atoms: _104  and  _105
REMARK   46  A    between atoms: _115  and  _116
REMARK   47  A    between atoms: _121  and  _123
REMARK   48  A    between atoms: _123  and  _124
REMARK   49  A    between atoms: _123  and  _126
REMARK   50  A    between atoms: _126  and  _127
REMARK   51  A    between atoms: _132  and  _133
REMARK   52  A    between atoms: _135  and  _137
REMARK   53  A    between atoms: _137  and  _138
REMARK   54  A    between atoms: _137  and  _140
REMARK   55  A    between atoms: _140  and  _141
REMARK   56  A    between atoms: _146  and  _147
REMARK   57  A    between atoms: _149  and  _151
REMARK   58  A    between atoms: _151  and  _152
REMARK   59  A    between atoms: _151  and  _154
REMARK   60  A    between atoms: _157  and  _159
REMARK   61  A    between atoms: _159  and  _160
REMARK   62  A    between atoms: _159  and  _162
REMARK   63  A    between atoms: _162  and  _163
REMARK   64  A    between atoms: _169  and  _170
REMARK   65  A    between atoms: _175  and  _177
REMARK   66  A    between atoms: _177  and  _178
REMARK   67  A    between atoms: _177  and  _180
REMARK   68  A    between atoms: _180  and  _181
REMARK   69  A    between atoms: _183  and  _185
REMARK   70  A    between atoms: _185  and  _186
REMARK   71  A    between atoms: _185  and  _188
REMARK   72  A    between atoms: _188  and  _189
REMARK   73  A    between atoms: _189  and  _190
REMARK   74  A    between atoms: _193  and  _195
REMARK   75  A    between atoms: _195  and  _196
REMARK   76  A    between atoms: _195  and  _198
REMARK   77  A    between atoms: _198  and  _199
REMARK   78  A    between atoms: _204  and  _205
REMARK   79  A    between atoms: _207  and  _209
REMARK   80  A    between atoms: _209  and  _210
REMARK   81  A    between atoms: _209  and  _212
REMARK   82  A    between atoms: _212  and  _213
REMARK   83  A    between atoms: _218  and  _220
REMARK   84  A    between atoms: _220  and  _221
REMARK   85  A    between atoms: _220  and  _223
REMARK   86  A    between atoms: _223  and  _224
REMARK   87  A    between atoms: _229  and  _231
REMARK   88  A    between atoms: _231  and  _232
REMARK   89  A    between atoms: _231  and  _234
REMARK   90  A    between atoms: _234  and  _235
REMARK   91  A    between atoms: _235  and  _236
REMARK   92  A    between atoms: _238  and  _240
REMARK   93  A    between atoms: _240  and  _241
REMARK   94  A    between atoms: _240  and  _243
REMARK   95  A    between atoms: _243  and  _244
REMARK   96  A    between atoms: _249  and  _250
REMARK   97  A    between atoms: _252  and  _254
REMARK   98  A    between atoms: _254  and  _255
REMARK   99  A    between atoms: _254  and  _257
REMARK  100  A    between atoms: _257  and  _258
REMARK  101  A    between atoms: _261  and  _263
REMARK  102  A    between atoms: _263  and  _264
REMARK  103  A    between atoms: _263  and  _266
REMARK  104  A    between atoms: _266  and  _267
REMARK  105  A    between atoms: _267  and  _484
REMARK  106  A    between atoms: _268  and  _270
REMARK  107  A    between atoms: _270  and  _271
REMARK  108  A    between atoms: _270  and  _273
REMARK  109  A    between atoms: _273  and  _274
REMARK  110  A    between atoms: _277  and  _279
REMARK  111  A    between atoms: _279  and  _280
REMARK  112  A    between atoms: _279  and  _282
REMARK  113  A    between atoms: _282  and  _283
REMARK  114  A    between atoms: _288  and  _289
REMARK  115  A    between atoms: _291  and  _293
REMARK  116  A    between atoms: _293  and  _294
REMARK  117  A    between atoms: _293  and  _296
REMARK  118  A    between atoms: _296  and  _297
REMARK  119  A    between atoms: _302  and  _303
REMARK  120  A    between atoms: _305  and  _307
REMARK  121  A    between atoms: _307  and  _308
REMARK  122  A    between atoms: _307  and  _310
REMARK  123  A    between atoms: _310  and  _311
REMARK  124  A    between atoms: _311  and  _312
REMARK  125  A    between atoms: _315  and  _317
REMARK  126  A    between atoms: _317  and  _318
REMARK  127  A    between atoms: _317  and  _320
REMARK  128  A    between atoms: _320  and  _321
REMARK  129  A    between atoms: _326  and  _327
REMARK  130  A    between atoms: _329  and  _331
REMARK  131  A    between atoms: _331  and  _332
REMARK  132  A    between atoms: _331  and  _334
REMARK  133  A    between atoms: _334  and  _335
REMARK  134  A    between atoms: _340  and  _342
REMARK  135  A    between atoms: _342  and  _343
REMARK  136  A    between atoms: _342  and  _345
REMARK  137  A    between atoms: _345  and  _346
REMARK  138  A    between atoms: _349  and  _351
REMARK  139  A    between atoms: _351  and  _352
REMARK  140  A    between atoms: _351  and  _354
REMARK  141  A    between atoms: _354  and  _355
REMARK  142  A    between atoms: _360  and  _362
REMARK  143  A    between atoms: _362  and  _363
REMARK  144  A    between atoms: _362  and  _365
REMARK  145  A    between atoms: _365  and  _366
REMARK  146  A    between atoms: _376  and  _378
REMARK  147  A    between atoms: _378  and  _379
REMARK  148  A    between atoms: _378  and  _381
REMARK  149  A    between atoms: _381  and  _382
REMARK  150  A    between atoms: _388  and  _390
REMARK  151  A    between atoms: _390  and  _391
REMARK  152  A    between atoms: _390  and  _393
REMARK  153  A    between atoms: _393  and  _394
REMARK  154  A    between atoms: _397  and  _399
REMARK  155  A    between atoms: _399  and  _400
REMARK  156  A    between atoms: _399  and  _402
REMARK  157  A    between atoms: _402  and  _403
REMARK  158  A    between atoms: _406  and  _408
REMARK  159  A    between atoms: _408  and  _409
REMARK  160  A    between atoms: _408  and  _411
REMARK  161  A    between atoms: _411  and  _412
REMARK  162  A    between atoms: _412  and  _413
REMARK  163  A    between atoms: _413  and  _414
REMARK  164  A    between atoms: _423  and  _425
REMARK  165  A    between atoms: _425  and  _426
REMARK  166  A    between atoms: _425  and  _428
REMARK  167  A    between atoms: _428  and  _429
REMARK  168  A    between atoms: _434  and  _436
REMARK  169  A    between atoms: _436  and  _437
REMARK  170  A    between atoms: _436  and  _439
REMARK  171  A    between atoms: _439  and  _440
REMARK  172  A    between atoms: _440  and  _441
REMARK  173  A    between atoms: _441  and  _442
REMARK  174  A    between atoms: _451  and  _453
REMARK  175  A    between atoms: _453  and  _454
REMARK  176  A    between atoms: _457  and  _459
REMARK  177  A    between atoms: _459  and  _460
REMARK  178  A    between atoms: _462  and  _464
REMARK  179  A    between atoms: _464  and  _465
REMARK  180  A    between atoms: _464  and  _467
REMARK  181  A    between atoms: _467  and  _468
REMARK  182  A    between atoms: _478  and  _480
REMARK  183  A    between atoms: _480  and  _481
REMARK  184  A    between atoms: _480  and  _483
REMARK  185  A    between atoms: _483  and  _484
REMARK  186  A    between atoms: _485  and  _487
REMARK  187  A    between atoms: _487  and  _488
REMARK  188  A    between atoms: _491  and  _493
REMARK  189  A    between atoms: _493  and  _494
REMARK  190  A    between atoms: _493  and  _496
REMARK  191  A    between atoms: _496  and  _497
REMARK  192  A    between atoms: _500  and  _502
REMARK  193  A    between atoms: _502  and  _503
REMARK  194  A    between atoms: _502  and  _505
REMARK  195  A    between atoms: _505  and  _506
REMARK  196  A    between atoms: _511  and  _512
REMARK  197  A    between atoms: _514  and  _516
REMARK  198  A    between atoms: _516  and  _517
REMARK  199  A    between atoms: _516  and  _519
REMARK  200  A    between atoms: _519  and  _520
REMARK  201  A    between atoms: _522  and  _524
REMARK  202  A    between atoms: _524  and  _525
REMARK  203  A    between atoms: _524  and  _527
REMARK  204  A    between atoms: _527  and  _528
REMARK  205  A    between atoms: _534  and  _536
REMARK  206  A    between atoms: _536  and  _537
REMARK  207  A    between atoms: _536  and  _539
REMARK  208  A    between atoms: _539  and  _540
REMARK  209  A    between atoms: _543  and  _545
REMARK  210  A    between atoms: _545  and  _546
REMARK  211  A    between atoms: _545  and  _548
REMARK  212  A    between atoms: _548  and  _549
REMARK  213  A    between atoms: _551  and  _553
REMARK  214  A    between atoms: _553  and  _554
REMARK  215  A    between atoms: _553  and  _556
REMARK  216  A    between atoms: _556  and  _557
REMARK  217  A    between atoms: _559  and  _561
REMARK  218  A    between atoms: _561  and  _562
REMARK  219  A    between atoms: _561  and  _564
REMARK  220  A    between atoms: _564  and  _565
REMARK  221  A    between atoms: _570  and  _572
REMARK  222  A    between atoms: _572  and  _573
REMARK  223  A    between atoms: _572  and  _575
REMARK  224  A    between atoms: _575  and  _576
REMARK  225  A    between atoms: _581  and  _583
REMARK  226  A    between atoms: _583  and  _584
REMARK  227  A    between atoms: _583  and  _586
REMARK  228  A    between atoms: _586  and  _587
REMARK  229  A    between atoms: _590  and  _592
REMARK  230  A    between atoms: _592  and  _593
REMARK  231  A    between atoms: _596  and  _598
REMARK  232  A    between atoms: _598  and  _599
REMARK  233  A    between atoms: _598  and  _601
REMARK  234  A    between atoms: _601  and  _602
REMARK  235  A    between atoms: _607  and  _608
REMARK  236  A    between atoms: _610  and  _612
REMARK  237  A    between atoms: _612  and  _613
REMARK  238  A    between atoms: _612  and  _615
REMARK  239  A    between atoms: _615  and  _616
REMARK  240  A    between atoms: _621  and  _622
REMARK  241  A    between atoms: _624  and  _626
REMARK  242  A    between atoms: _626  and  _627
REMARK  243  A    between atoms: _626  and  _629
REMARK  244  A    between atoms: _632  and  _634
REMARK  245  A    between atoms: _634  and  _635
REMARK  246  A    between atoms: _634  and  _637
REMARK  247  A    between atoms: _637  and  _638
REMARK  248  A    between atoms: _643  and  _645
REMARK  249  A    between atoms: _645  and  _646
REMARK  250  A    between atoms: _649  and  _651
REMARK  251  A    between atoms: _651  and  _652
REMARK  252  A    between atoms: _651  and  _654
REMARK  253  A    between atoms: _654  and  _655
REMARK  254  A    between atoms: _655  and  _656
REMARK  255  A    between atoms: _656  and  _657
REMARK  256  A    between atoms: _666  and  _668
REMARK  257  A    between atoms: _668  and  _669
REMARK  258  A    between atoms: _668  and  _671
REMARK  259  A    between atoms: _671  and  _672
REMARK  260  A    between atoms: _675  and  _677
REMARK  261  A    between atoms: _677  and  _678
REMARK  262  A    between atoms: _677  and  _680
REMARK  263  A    between atoms: _680  and  _681
REMARK  264  A    between atoms: _684  and  _686
REMARK  265  A    between atoms: _686  and  _687
REMARK  266  A    between atoms: _686  and  _689
REMARK  267  A    between atoms: _689  and  _690
REMARK                            x       y       z     vdW  Elec       q    Type
REMARK                         _______ _______ _______ _____ _____    ______ ____
ROOT
ATOM      1  C   LEU A   1     -11.034  23.265  18.624  0.00  0.00    +0.238 C 
ATOM      2  O   LEU A   1     -11.475  22.893  19.737  0.00  0.00    -0.274 OA
ATOM      3  N   HIS A   2      -9.885  23.973  18.534  0.00  0.00    -0.298 N 
ATOM      4  H   HIS A   2      -9.550  24.312  17.610  0.00  0.00    +0.150 HD
ENDROOT
BRANCH   1   5
ATOM      5  CA  LEU A   1     -11.806  22.954  17.352  0.00  0.00    +0.145 C 
BRANCH   5   6
ATOM      6  N   LEU A   1     -12.050  24.167  16.579  0.00  0.00    -0.238 NA
ATOM      7  H   LEU A   1     -11.688  24.214  15.605  0.00  0.00    +0.142 HD
ENDBRANCH   5   6
BRANCH   5   8
ATOM      8  CB  LEU A   1     -11.070  21.885  16.520  0.00  0.00    +0.026 C 
BRANCH   8   9
ATOM      9  CG  LEU A   1     -10.555  20.670  17.296  0.00  0.00    +0.002 C 
ATOM     10  CD2 LEU A   1     -11.745  19.863  17.833  0.00  0.00    +0.000 C 
ATOM     11  CD1 LEU A   1      -9.705  19.803  16.368  0.00  0.00    +0.000 C 
ENDBRANCH   8   9
ENDBRANCH   5   8
ENDBRANCH   1   5
BRANCH   3  12
ATOM     12  CA  HIS A   2      -9.115  24.260  19.749  0.00  0.00    +0.143 C 
BRANCH  12  13
ATOM     13  C   HIS A   2      -9.864  25.198  20.711  0.00  0.00    +0.227 C 
ATOM     14  O   HIS A   2      -9.753  25.002  21.937  0.00  0.00    -0.286 OA
ENDBRANCH  12  13
BRANCH  12  15
ATOM     15  CB  HIS A   2      -7.681  24.751  19.459  0.00  0.00    +0.075 C 
BRANCH  15  16
ATOM     16  CG  HIS A   2      -6.906  23.791  18.603  0.00  0.00    +0.082 A 
ATOM     17  ND1 HIS A   2      -6.866  22.422  18.831  0.00  0.00    -0.227 NA
ATOM     18  CE1 HIS A   2      -6.108  21.846  17.896  0.00  0.00    +0.199 A 
ATOM     19  NE2 HIS A   2      -5.666  22.785  17.089  0.00  0.00    -0.221 NA
ATOM     20  CD2 HIS A   2      -6.130  24.011  17.498  0.00  0.00    +0.115 A 
ENDBRANCH  15  16
ENDBRANCH  12  15
ENDBRANCH   3  12
TORSDOF 8
REMARK  Name = ../refined-set-2016/2olb/2olb_pocket.pdb
REMARK  267 active torsions:
REMARK  status: ('A' for Active; 'I' for Inactive)
REMARK    1  A    between atoms: _1  and  _3
REMARK    2  A    between atoms: _3  and  _4
REMARK    3  A    between atoms: _3  and  _6
REMARK    4  A    between atoms: _6  and  _7
REMARK    5  A    between atoms: _12  and  _14
REMARK    6  A    between atoms: _14  and  _15
REMARK    7  A    between atoms: _17  and  _19
REMARK    8  A    between atoms: _19  and  _20
REMARK    9  A    between atoms: _19  and  _22
REMARK   10  A    between atoms: _22  and  _23
REMARK   11  A    between atoms: _23  and  _24
REMARK   12  A    between atoms: _29  and  _31
REMARK   13  A    between atoms: _31  and  _32
REMARK   14  A    between atoms: _31  and  _34
REMARK   15  A    between atoms: _34  and  _35
REMARK   16  A    between atoms: _38  and  _40
REMARK   17  A    between atoms: _40  and  _41
REMARK   18  A    between atoms: _40  and  _43
REMARK   19  A    between atoms: _43  and  _44
REMARK   20  A    between atoms: _44  and  _45
REMARK   21  A    between atoms: _48  and  _50
REMARK   22  A    between atoms: _50  and  _51
REMARK   23  A    between atoms: _53  and  _55
REMARK   24  A    between atoms: _55  and  _56
REMARK   25  A    between atoms: _55  and  _58
REMARK   26  A    between atoms: _62  and  _63
REMARK   27  A    between atoms: _68  and  _70
REMARK   28  A    between atoms: _70  and  _71
REMARK   29  A    between atoms: _70  and  _73
REMARK   30  A    between atoms: _73  and  _74
REMARK   31  A    between atoms: _74  and  _75
REMARK   32  A    between atoms: _78  and  _80
REMARK   33  A    between atoms: _80  and  _81
REMARK   34  A    between atoms: _80  and  _83
REMARK   35  A    between atoms: _83  and  _84
REMARK   36  A    between atoms: _86  and  _88
REMARK   37  A    between atoms: _88  and  _89
REMARK   38  A    between atoms: _88  and  _91
REMARK   39  A    between atoms: _91  and  _92
REMARK   40  A    between atoms: _97  and  _99
REMARK   41  A    between atoms: _99  and  _100
REMARK   42  A    between atoms: _99  and  _102
REMARK   43  A    between atoms: _102  and  _103
REMARK   44  A    between atoms: _103  and  _104
REMARK   45  A    between atoms: _104  and  _105
REMARK   46  A    between atoms: _115  and  _116
REMARK   47  A    between atoms: _121  and  _123
REMARK   48  A    between atoms: _123  and  _124
REMARK   49  A    between atoms: _123  and  _126
REMARK   50  A    between atoms: _126  and  _127
REMARK   51  A    between atoms: _132  and  _133
REMARK   52  A    between atoms: _135  and  _137
REMARK   53  A    between atoms: _137  and  _138
REMARK   54  A    between atoms: _137  and  _140
REMARK   55  A    between atoms: _140  and  _141
REMARK   56  A    between atoms: _146  and  _147
REMARK   57  A    between atoms: _149  and  _151
REMARK   58  A    between atoms: _151  and  _152
REMARK   59  A    between atoms: _151  and  _154
REMARK   60  A    between atoms: _157  and  _159
REMARK   61  A    between atoms: _159  and  _160
REMARK   62  A    between atoms: _159  and  _162
REMARK   63  A    between atoms: _162  and  _163
REMARK   64  A    between atoms: _169  and  _170
REMARK   65  A    between atoms: _175  and  _177
REMARK   66  A    between atoms: _177  and  _178
REMARK   67  A    between atoms: _177  and  _180
REMARK   68  A    between atoms: _180  and  _181
REMARK   69  A    between atoms: _183  and  _185
REMARK   70  A    between atoms: _185  and  _186
REMARK   71  A    between atoms: _185  and  _188
REMARK   72  A    between atoms: _188  and  _189
REMARK   73  A    between atoms: _189  and  _190
REMARK   74  A    between atoms: _193  and  _195
REMARK   75  A    between atoms: _195  and  _196
REMARK   76  A    between atoms: _195  and  _198
REMARK   77  A    between atoms: _198  and  _199
REMARK   78  A    between atoms: _204  and  _205
REMARK   79  A    between atoms: _207  and  _209
REMARK   80  A    between atoms: _209  and  _210
REMARK   81  A    between atoms: _209  and  _212
REMARK   82  A    between atoms: _212  and  _213
REMARK   83  A    between atoms: _218  and  _220
REMARK   84  A    between atoms: _220  and  _221
REMARK   85  A    between atoms: _220  and  _223
REMARK   86  A    between atoms: _223  and  _224
REMARK   87  A    between atoms: _229  and  _231
REMARK   88  A    between atoms: _231  and  _232
REMARK   89  A    between atoms: _231  and  _234
REMARK   90  A    between atoms: _234  and  _235
REMARK   91  A    between atoms: _235  and  _236
REMARK   92  A    between atoms: _238  and  _240
REMARK   93  A    between atoms: _240  and  _241
REMARK   94  A    between atoms: _240  and  _243
REMARK   95  A    between atoms: _243  and  _244
REMARK   96  A    between atoms: _249  and  _250
REMARK   97  A    between atoms: _252  and  _254
REMARK   98  A    between atoms: _254  and  _255
REMARK   99  A    between atoms: _254  and  _257
REMARK  100  A    between atoms: _257  and  _258
REMARK  101  A    between atoms: _261  and  _263
REMARK  102  A    between atoms: _263  and  _264
REMARK  103  A    between atoms: _263  and  _266
REMARK  104  A    between atoms: _266  and  _267
REMARK  105  A    between atoms: _267  and  _484
REMARK  106  A    between atoms: _268  and  _270
REMARK  107  A    between atoms: _270  and  _271
REMARK  108  A    between atoms: _270  and  _273
REMARK  109  A    between atoms: _273  and  _274
REMARK  110  A    between atoms: _277  and  _279
REMARK  111  A    between atoms: _279  and  _280
REMARK  112  A    between atoms: _279  and  _282
REMARK  113  A    between atoms: _282  and  _283
REMARK  114  A    between atoms: _288  and  _289
REMARK  115  A    between atoms: _291  and  _293
REMARK  116  A    between atoms: _293  and  _294
REMARK  117  A    between atoms: _293  and  _296
REMARK  118  A    between atoms: _296  and  _297
REMARK  119  A    between atoms: _302  and  _303
REMARK  120  A    between atoms: _305  and  _307
REMARK  121  A    between atoms: _307  and  _308
REMARK  122  A    between atoms: _307  and  _310
REMARK  123  A    between atoms: _310  and  _311
REMARK  124  A    between atoms: _311  and  _312
REMARK  125  A    between atoms: _315  and  _317
REMARK  126  A    between atoms: _317  and  _318
REMARK  127  A    between atoms: _317  and  _320
REMARK  128  A    between atoms: _320  and  _321
REMARK  129  A    between atoms: _326  and  _327
REMARK  130  A    between atoms: _329  and  _331
REMARK  131  A    between atoms: _331  and  _332
REMARK  132  A    between atoms: _331  and  _334
REMARK  133  A    between atoms: _334  and  _335
REMARK  134  A    between atoms: _340  and  _342
REMARK  135  A    between atoms: _342  and  _343
REMARK  136  A    between atoms: _342  and  _345
REMARK  137  A    between atoms: _345  and  _346
REMARK  138  A    between atoms: _349  and  _351
REMARK  139  A    between atoms: _351  and  _352
REMARK  140  A    between atoms: _351  and  _354
REMARK  141  A    between atoms: _354  and  _355
REMARK  142  A    between atoms: _360  and  _362
REMARK  143  A    between atoms: _362  and  _363
REMARK  144  A    between atoms: _362  and  _365
REMARK  145  A    between atoms: _365  and  _366
REMARK  146  A    between atoms: _376  and  _378
REMARK  147  A    between atoms: _378  and  _379
REMARK  148  A    between atoms: _378  and  _381
REMARK  149  A    between atoms: _381  and  _382
REMARK  150  A    between atoms: _388  and  _390
REMARK  151  A    between atoms: _390  and  _391
REMARK  152  A    between atoms: _390  and  _393
REMARK  153  A    between atoms: _393  and  _394
REMARK  154  A    between atoms: _397  and  _399
REMARK  155  A    between atoms: _399  and  _400
REMARK  156  A    between atoms: _399  and  _402
REMARK  157  A    between atoms: _402  and  _403
REMARK  158  A    between atoms: _406  and  _408
REMARK  159  A    between atoms: _408  and  _409
REMARK  160  A    between atoms: _408  and  _411
REMARK  161  A    between atoms: _411  and  _412
REMARK  162  A    between atoms: _412  and  _413
REMARK  163  A    between atoms: _413  and  _414
REMARK  164  A    between atoms: _423  and  _425
REMARK  165  A    between atoms: _425  and  _426
REMARK  166  A    between atoms: _425  and  _428
REMARK  167  A    between atoms: _428  and  _429
REMARK  168  A    between atoms: _434  and  _436
REMARK  169  A    between atoms: _436  and  _437
REMARK  170  A    between atoms: _436  and  _439
REMARK  171  A    between atoms: _439  and  _440
REMARK  172  A    between atoms: _440  and  _441
REMARK  173  A    between atoms: _441  and  _442
REMARK  174  A    between atoms: _451  and  _453
REMARK  175  A    between atoms: _453  and  _454
REMARK  176  A    between atoms: _457  and  _459
REMARK  177  A    between atoms: _459  and  _460
REMARK  178  A    between atoms: _462  and  _464
REMARK  179  A    between atoms: _464  and  _465
REMARK  180  A    between atoms: _464  and  _467
REMARK  181  A    between atoms: _467  and  _468
REMARK  182  A    between atoms: _478  and  _480
REMARK  183  A    between atoms: _480  and  _481
REMARK  184  A    between atoms: _480  and  _483
REMARK  185  A    between atoms: _483  and  _484
REMARK  186  A    between atoms: _485  and  _487
REMARK  187  A    between atoms: _487  and  _488
REMARK  188  A    between atoms: _491  and  _493
REMARK  189  A    between atoms: _493  and  _494
REMARK  190  A    between atoms: _493  and  _496
REMARK  191  A    between atoms: _496  and  _497
REMARK  192  A    between atoms: _500  and  _502
REMARK  193  A    between atoms: _502  and  _503
REMARK  194  A    between atoms: _502  and  _505
REMARK  195  A    between atoms: _505  and  _506
REMARK  196  A    between atoms: _511  and  _512
REMARK  197  A    between atoms: _514  and  _516
REMARK  198  A    between atoms: _516  and  _517
REMARK  199  A    between atoms: _516  and  _519
REMARK  200  A    between atoms: _519  and  _520
REMARK  201  A    between atoms: _522  and  _524
REMARK  202  A    between atoms: _524  and  _525
REMARK  203  A    between atoms: _524  and  _527
REMARK  204  A    between atoms: _527  and  _528
REMARK  205  A    between atoms: _534  and  _536
REMARK  206  A    between atoms: _536  and  _537
REMARK  207  A    between atoms: _536  and  _539
REMARK  208  A    between atoms: _539  and  _540
REMARK  209  A    between atoms: _543  and  _545
REMARK  210  A    between atoms: _545  and  _546
REMARK  211  A    between atoms: _545  and  _548
REMARK  212  A    between atoms: _548  and  _549
REMARK  213  A    between atoms: _551  and  _553
REMARK  214  A    between atoms: _553  and  _554
REMARK  215  A    between atoms: _553  and  _556
REMARK  216  A    between atoms: _556  and  _557
REMARK  217  A    between atoms: _559  and  _561
REMARK  218  A    between atoms: _561  and  _562
REMARK  219  A    between atoms: _561  and  _564
REMARK  220  A    between atoms: _564  and  _565
REMARK  221  A    between atoms: _570  and  _572
REMARK  222  A    between atoms: _572  and  _573
REMARK  223  A    between atoms: _572  and  _575
REMARK  224  A    between atoms: _575  and  _576
REMARK  225  A    between atoms: _581  and  _583
REMARK  226  A    between atoms: _583  and  _584
REMARK  227  A    between atoms: _583  and  _586
REMARK  228  A    between atoms: _586  and  _587
REMARK  229  A    between atoms: _590  and  _592
REMARK  230  A    between atoms: _592  and  _593
REMARK  231  A    between atoms: _596  and  _598
REMARK  232  A    between atoms: _598  and  _599
REMARK  233  A    between atoms: _598  and  _601
REMARK  234  A    between atoms: _601  and  _602
REMARK  235  A    between atoms: _607  and  _608
REMARK  236  A    between atoms: _610  and  _612
REMARK  237  A    between atoms: _612  and  _613
REMARK  238  A    between atoms: _612  and  _615
REMARK  239  A    between atoms: _615  and  _616
REMARK  240  A    between atoms: _621  and  _622
REMARK  241  A    between atoms: _624  and  _626
REMARK  242  A    between atoms: _626  and  _627
REMARK  243  A    between atoms: _626  and  _629
REMARK  244  A    between atoms: _632  and  _634
REMARK  245  A    between atoms: _634  and  _635
REMARK  246  A    between atoms: _634  and  _637
REMARK  247  A    between atoms: _637  and  _638
REMARK  248  A    between atoms: _643  and  _645
REMARK  249  A    between atoms: _645  and  _646
REMARK  250  A    between atoms: _649  and  _651
REMARK  251  A    between atoms: _651  and  _652
REMARK  252  A    between atoms: _651  and  _654
REMARK  253  A    between atoms: _654  and  _655
REMARK  254  A    between atoms: _655  and  _656
REMARK  255  A    between atoms: _656  and  _657
REMARK  256  A    between atoms: _666  and  _668
REMARK  257  A    between atoms: _668  and  _669
REMARK  258  A    between atoms: _668  and  _671
REMARK  259  A    between atoms: _671  and  _672
REMARK  260  A    between atoms: _675  and  _677
REMARK  261  A    between atoms: _677  and  _678
REMARK  262  A    between atoms: _677  and  _680
REMARK  263  A    between atoms: _680  and  _681
REMARK  264  A    between atoms: _684  and  _686
REMARK  265  A    between atoms: _686  and  _687
REMARK  266  A    between atoms: _686  and  _689
REMARK  267  A    between atoms: _689  and  _690
REMARK                            x       y       z     vdW  Elec       q    Type
REMARK                         _______ _______ _______ _____ _____    ______ ____
ROOT
ATOM      1  CG  TRP A   1       0.650  27.337  13.088  0.00  0.00    -0.002 A 
ATOM      2  CD2 TRP A   1       0.678  26.243  14.010  0.00  0.00    +0.013 A 
ATOM      3  CE3 TRP A   1      -0.015  25.948  15.180  0.00  0.00    +0.001 A 
ATOM      4  CZ3 TRP A   1       0.289  24.763  15.865  0.00  0.00    +0.000 A 
ATOM      5  CH2 TRP A   1       1.229  23.858  15.383  0.00  0.00    +0.001 A 
ATOM      6  CZ2 TRP A   1       1.915  24.131  14.200  0.00  0.00    +0.017 A 
ATOM      7  CE2 TRP A   1       1.638  25.323  13.538  0.00  0.00    +0.056 A 
ATOM      8  NE1 TRP A   1       2.167  25.851  12.386  0.00  0.00    -0.352 N 
ATOM      9  HE1 TRP A   1       2.907  25.402  11.809  0.00  0.00    +0.166 HD
ATOM     10  CD1 TRP A   1       1.573  27.063  12.106  0.00  0.00    +0.068 A 
ENDROOT
BRANCH   1  11
ATOM     11  CB  TRP A   1      -0.240  28.561  13.119  0.00  0.00    +0.053 C 
BRANCH  11  12
ATOM     12  CA  TRP A   1      -0.092  29.479  14.346  0.00  0.00    +0.137 C 
BRANCH  12  13
ATOM     13  N   TRP A   1      -1.064  30.545  14.224  0.00  0.00    -0.239 NA
ATOM     14  H   TRP A   1      -1.833  30.415  13.536  0.00  0.00    +0.142 HD
ENDBRANCH  12  13
BRANCH  12  15
ATOM     15  C   TRP A   1       1.355  29.894  14.468  0.00  0.00    +0.224 C 
ATOM     16  O   TRP A   1       2.036  29.528  15.419  0.00  0.00    -0.287 OA
ENDBRANCH  12  15
ENDBRANCH  11  12
ENDBRANCH   1  11
TORSDOF 4
REMARK  Name = ../refined-set-2016/2olb/2olb_pocket.pdb
REMARK  267 active torsions:
REMARK  status: ('A' for Active; 'I' for Inactive)
REMARK    1  A    between atoms: _1  and  _3
REMARK    2  A    between atoms: _3  and  _4
REMARK    3  A    between atoms: _3  and  _6
REMARK    4  A    between atoms: _6  and  _7
REMARK    5  A    between atoms: _12  and  _14
REMARK    6  A    between atoms: _14  and  _15
REMARK    7  A    between atoms: _17  and  _19
REMARK    8  A    between atoms: _19  and  _20
REMARK    9  A    between atoms: _19  and  _22
REMARK   10  A    between atoms: _22  and  _23
REMARK   11  A    between atoms: _23  and  _24
REMARK   12  A    between atoms: _29  and  _31
REMARK   13  A    between atoms: _31  and  _32
REMARK   14  A    between atoms: _31  and  _34
REMARK   15  A    between atoms: _34  and  _35
REMARK   16  A    between atoms: _38  and  _40
REMARK   17  A    between atoms: _40  and  _41
REMARK   18  A    between atoms: _40  and  _43
REMARK   19  A    between atoms: _43  and  _44
REMARK   20  A    between atoms: _44  and  _45
REMARK   21  A    between atoms: _48  and  _50
REMARK   22  A    between atoms: _50  and  _51
REMARK   23  A    between atoms: _53  and  _55
REMARK   24  A    between atoms: _55  and  _56
REMARK   25  A    between atoms: _55  and  _58
REMARK   26  A    between atoms: _62  and  _63
REMARK   27  A    between atoms: _68  and  _70
REMARK   28  A    between atoms: _70  and  _71
REMARK   29  A    between atoms: _70  and  _73
REMARK   30  A    between atoms: _73  and  _74
REMARK   31  A    between atoms: _74  and  _75
REMARK   32  A    between atoms: _78  and  _80
REMARK   33  A    between atoms: _80  and  _81
REMARK   34  A    between atoms: _80  and  _83
REMARK   35  A    between atoms: _83  and  _84
REMARK   36  A    between atoms: _86  and  _88
REMARK   37  A    between atoms: _88  and  _89
REMARK   38  A    between atoms: _88  and  _91
REMARK   39  A    between atoms: _91  and  _92
REMARK   40  A    between atoms: _97  and  _99
REMARK   41  A    between atoms: _99  and  _100
REMARK   42  A    between atoms: _99  and  _102
REMARK   43  A    between atoms: _102  and  _103
REMARK   44  A    between atoms: _103  and  _104
REMARK   45  A    between atoms: _104  and  _105
REMARK   46  A    between atoms: _115  and  _116
REMARK   47  A    between atoms: _121  and  _123
REMARK   48  A    between atoms: _123  and  _124
REMARK   49  A    between atoms: _123  and  _126
REMARK   50  A    between atoms: _126  and  _127
REMARK   51  A    between atoms: _132  and  _133
REMARK   52  A    between atoms: _135  and  _137
REMARK   53  A    between atoms: _137  and  _138
REMARK   54  A    between atoms: _137  and  _140
REMARK   55  A    between atoms: _140  and  _141
REMARK   56  A    between atoms: _146  and  _147
REMARK   57  A    between atoms: _149  and  _151
REMARK   58  A    between atoms: _151  and  _152
REMARK   59  A    between atoms: _151  and  _154
REMARK   60  A    between atoms: _157  and  _159
REMARK   61  A    between atoms: _159  and  _160
REMARK   62  A    between atoms: _159  and  _162
REMARK   63  A    between atoms: _162  and  _163
REMARK   64  A    between atoms: _169  and  _170
REMARK   65  A    between atoms: _175  and  _177
REMARK   66  A    between atoms: _177  and  _178
REMARK   67  A    between atoms: _177  and  _180
REMARK   68  A    between atoms: _180  and  _181
REMARK   69  A    between atoms: _183  and  _185
REMARK   70  A    between atoms: _185  and  _186
REMARK   71  A    between atoms: _185  and  _188
REMARK   72  A    between atoms: _188  and  _189
REMARK   73  A    between atoms: _189  and  _190
REMARK   74  A    between atoms: _193  and  _195
REMARK   75  A    between atoms: _195  and  _196
REMARK   76  A    between atoms: _195  and  _198
REMARK   77  A    between atoms: _198  and  _199
REMARK   78  A    between atoms: _204  and  _205
REMARK   79  A    between atoms: _207  and  _209
REMARK   80  A    between atoms: _209  and  _210
REMARK   81  A    between atoms: _209  and  _212
REMARK   82  A    between atoms: _212  and  _213
REMARK   83  A    between atoms: _218  and  _220
REMARK   84  A    between atoms: _220  and  _221
REMARK   85  A    between atoms: _220  and  _223
REMARK   86  A    between atoms: _223  and  _224
REMARK   87  A    between atoms: _229  and  _231
REMARK   88  A    between atoms: _231  and  _232
REMARK   89  A    between atoms: _231  and  _234
REMARK   90  A    between atoms: _234  and  _235
REMARK   91  A    between atoms: _235  and  _236
REMARK   92  A    between atoms: _238  and  _240
REMARK   93  A    between atoms: _240  and  _241
REMARK   94  A    between atoms: _240  and  _243
REMARK   95  A    between atoms: _243  and  _244
REMARK   96  A    between atoms: _249  and  _250
REMARK   97  A    between atoms: _252  and  _254
REMARK   98  A    between atoms: _254  and  _255
REMARK   99  A    between atoms: _254  and  _257
REMARK  100  A    between atoms: _257  and  _258
REMARK  101  A    between atoms: _261  and  _263
REMARK  102  A    between atoms: _263  and  _264
REMARK  103  A    between atoms: _263  and  _266
REMARK  104  A    between atoms: _266  and  _267
REMARK  105  A    between atoms: _267  and  _484
REMARK  106  A    between atoms: _268  and  _270
REMARK  107  A    between atoms: _270  and  _271
REMARK  108  A    between atoms: _270  and  _273
REMARK  109  A    between atoms: _273  and  _274
REMARK  110  A    between atoms: _277  and  _279
REMARK  111  A    between atoms: _279  and  _280
REMARK  112  A    between atoms: _279  and  _282
REMARK  113  A    between atoms: _282  and  _283
REMARK  114  A    between atoms: _288  and  _289
REMARK  115  A    between atoms: _291  and  _293
REMARK  116  A    between atoms: _293  and  _294
REMARK  117  A    between atoms: _293  and  _296
REMARK  118  A    between atoms: _296  and  _297
REMARK  119  A    between atoms: _302  and  _303
REMARK  120  A    between atoms: _305  and  _307
REMARK  121  A    between atoms: _307  and  _308
REMARK  122  A    between atoms: _307  and  _310
REMARK  123  A    between atoms: _310  and  _311
REMARK  124  A    between atoms: _311  and  _312
REMARK  125  A    between atoms: _315  and  _317
REMARK  126  A    between atoms: _317  and  _318
REMARK  127  A    between atoms: _317  and  _320
REMARK  128  A    between atoms: _320  and  _321
REMARK  129  A    between atoms: _326  and  _327
REMARK  130  A    between atoms: _329  and  _331
REMARK  131  A    between atoms: _331  and  _332
REMARK  132  A    between atoms: _331  and  _334
REMARK  133  A    between atoms: _334  and  _335
REMARK  134  A    between atoms: _340  and  _342
REMARK  135  A    between atoms: _342  and  _343
REMARK  136  A    between atoms: _342  and  _345
REMARK  137  A    between atoms: _345  and  _346
REMARK  138  A    between atoms: _349  and  _351
REMARK  139  A    between atoms: _351  and  _352
REMARK  140  A    between atoms: _351  and  _354
REMARK  141  A    between atoms: _354  and  _355
REMARK  142  A    between atoms: _360  and  _362
REMARK  143  A    between atoms: _362  and  _363
REMARK  144  A    between atoms: _362  and  _365
REMARK  145  A    between atoms: _365  and  _366
REMARK  146  A    between atoms: _376  and  _378
REMARK  147  A    between atoms: _378  and  _379
REMARK  148  A    between atoms: _378  and  _381
REMARK  149  A    between atoms: _381  and  _382
REMARK  150  A    between atoms: _388  and  _390
REMARK  151  A    between atoms: _390  and  _391
REMARK  152  A    between atoms: _390  and  _393
REMARK  153  A    between atoms: _393  and  _394
REMARK  154  A    between atoms: _397  and  _399
REMARK  155  A    between atoms: _399  and  _400
REMARK  156  A    between atoms: _399  and  _402
REMARK  157  A    between atoms: _402  and  _403
REMARK  158  A    between atoms: _406  and  _408
REMARK  159  A    between atoms: _408  and  _409
REMARK  160  A    between atoms: _408  and  _411
REMARK  161  A    between atoms: _411  and  _412
REMARK  162  A    between atoms: _412  and  _413
REMARK  163  A    between atoms: _413  and  _414
REMARK  164  A    between atoms: _423  and  _425
REMARK  165  A    between atoms: _425  and  _426
REMARK  166  A    between atoms: _425  and  _428
REMARK  167  A    between atoms: _428  and  _429
REMARK  168  A    between atoms: _434  and  _436
REMARK  169  A    between atoms: _436  and  _437
REMARK  170  A    between atoms: _436  and  _439
REMARK  171  A    between atoms: _439  and  _440
REMARK  172  A    between atoms: _440  and  _441
REMARK  173  A    between atoms: _441  and  _442
REMARK  174  A    between atoms: _451  and  _453
REMARK  175  A    between atoms: _453  and  _454
REMARK  176  A    between atoms: _457  and  _459
REMARK  177  A    between atoms: _459  and  _460
REMARK  178  A    between atoms: _462  and  _464
REMARK  179  A    between atoms: _464  and  _465
REMARK  180  A    between atoms: _464  and  _467
REMARK  181  A    between atoms: _467  and  _468
REMARK  182  A    between atoms: _478  and  _480
REMARK  183  A    between atoms: _480  and  _481
REMARK  184  A    between atoms: _480  and  _483
REMARK  185  A    between atoms: _483  and  _484
REMARK  186  A    between atoms: _485  and  _487
REMARK  187  A    between atoms: _487  and  _488
REMARK  188  A    between atoms: _491  and  _493
REMARK  189  A    between atoms: _493  and  _494
REMARK  190  A    between atoms: _493  and  _496
REMARK  191  A    between atoms: _496  and  _497
REMARK  192  A    between atoms: _500  and  _502
REMARK  193  A    between atoms: _502  and  _503
REMARK  194  A    between atoms: _502  and  _505
REMARK  195  A    between atoms: _505  and  _506
REMARK  196  A    between atoms: _511  and  _512
REMARK  197  A    between atoms: _514  and  _516
REMARK  198  A    between atoms: _516  and  _517
REMARK  199  A    between atoms: _516  and  _519
REMARK  200  A    between atoms: _519  and  _520
REMARK  201  A    between atoms: _522  and  _524
REMARK  202  A    between atoms: _524  and  _525
REMARK  203  A    between atoms: _524  and  _527
REMARK  204  A    between atoms: _527  and  _528
REMARK  205  A    between atoms: _534  and  _536
REMARK  206  A    between atoms: _536  and  _537
REMARK  207  A    between atoms: _536  and  _539
REMARK  208  A    between atoms: _539  and  _540
REMARK  209  A    between atoms: _543  and  _545
REMARK  210  A    between atoms: _545  and  _546
REMARK  211  A    between atoms: _545  and  _548
REMARK  212  A    between atoms: _548  and  _549
REMARK  213  A    between atoms: _551  and  _553
REMARK  214  A    between atoms: _553  and  _554
REMARK  215  A    between atoms: _553  and  _556
REMARK  216  A    between atoms: _556  and  _557
REMARK  217  A    between atoms: _559  and  _561
REMARK  218  A    between atoms: _561  and  _562
REMARK  219  A    between atoms: _561  and  _564
REMARK  220  A    between atoms: _564  and  _565
REMARK  221  A    between atoms: _570  and  _572
REMARK  222  A    between atoms: _572  and  _573
REMARK  223  A    between atoms: _572  and  _575
REMARK  224  A    between atoms: _575  and  _576
REMARK  225  A    between atoms: _581  and  _583
REMARK  226  A    between atoms: _583  and  _584
REMARK  227  A    between atoms: _583  and  _586
REMARK  228  A    between atoms: _586  and  _587
REMARK  229  A    between atoms: _590  and  _592
REMARK  230  A    between atoms: _592  and  _593
REMARK  231  A    between atoms: _596  and  _598
REMARK  232  A    between atoms: _598  and  _599
REMARK  233  A    between atoms: _598  and  _601
REMARK  234  A    between atoms: _601  and  _602
REMARK  235  A    between atoms: _607  and  _608
REMARK  236  A    between atoms: _610  and  _612
REMARK  237  A    between atoms: _612  and  _613
REMARK  238  A    between atoms: _612  and  _615
REMARK  239  A    between atoms: _615  and  _616
REMARK  240  A    between atoms: _621  and  _622
REMARK  241  A    between atoms: _624  and  _626
REMARK  242  A    between atoms: _626  and  _627
REMARK  243  A    between atoms: _626  and  _629
REMARK  244  A    between atoms: _632  and  _634
REMARK  245  A    between atoms: _634  and  _635
REMARK  246  A    between atoms: _634  and  _637
REMARK  247  A    between atoms: _637  and  _638
REMARK  248  A    between atoms: _643  and  _645
REMARK  249  A    between atoms: _645  and  _646
REMARK  250  A    between atoms: _649  and  _651
REMARK  251  A    between atoms: _651  and  _652
REMARK  252  A    between atoms: _651  and  _654
REMARK  253  A    between atoms: _654  and  _655
REMARK  254  A    between atoms: _655  and  _656
REMARK  255  A    between atoms: _656  and  _657
REMARK  256  A    between atoms: _666  and  _668
REMARK  257  A    between atoms: _668  and  _669
REMARK  258  A    between atoms: _668  and  _671
REMARK  259  A    between atoms: _671  and  _672
REMARK  260  A    between atoms: _675  and  _677
REMARK  261  A    between atoms: _677  and  _678
REMARK  262  A    between atoms: _677  and  _680
REMARK  263  A    between atoms: _680  and  _681
REMARK  264  A    between atoms: _684  and  _686
REMARK  265  A    between atoms: _686  and  _687
REMARK  266  A    between atoms: _686  and  _689
REMARK  267  A    between atoms: _689  and  _690
REMARK                            x       y       z     vdW  Elec       q    Type
REMARK                         _______ _______ _______ _____ _____    ______ ____
ROOT
ATOM      1  CA  LEU A   2       4.842  28.703  18.217  0.00  0.00    +0.149 C 
ENDROOT
BRANCH   1   4
ATOM      2  C   PHE A   1       2.958  30.022  19.063  0.00  0.00    +0.239 C 
ATOM      3  O   PHE A   1       3.367  29.844  20.226  0.00  0.00    -0.274 OA
ATOM      4  N   LEU A   2       3.602  29.507  18.007  0.00  0.00    -0.297 N 
ATOM      5  H   LEU A   2       3.240  29.667  17.045  0.00  0.00    +0.150 HD
BRANCH   2   6
ATOM      6  CA  PHE A   1       1.693  30.845  18.781  0.00  0.00    +0.149 C 
BRANCH   6   7
ATOM      7  N   PHE A   1       1.885  31.796  17.689  0.00  0.00    -0.238 NA
ATOM      8  H   PHE A   1       1.214  31.779  16.895  0.00  0.00    +0.142 HD
ENDBRANCH   6   7
BRANCH   6   9
ATOM      9  CB  PHE A   1       0.539  29.948  18.371  0.00  0.00    +0.053 C 
BRANCH   9  10
ATOM     10  CG  PHE A   1       0.204  28.785  19.245  0.00  0.00    -0.020 A 
ATOM     11  CD2 PHE A   1      -0.256  28.967  20.514  0.00  0.00    -0.004 A 
ATOM     12  CE2 PHE A   1      -0.591  27.878  21.325  0.00  0.00    -0.000 A 
ATOM     13  CZ  PHE A   1      -0.453  26.593  20.835  0.00  0.00    -0.000 A 
ATOM     14  CE1 PHE A   1       0.010  26.379  19.542  0.00  0.00    -0.000 A 
ATOM     15  CD1 PHE A   1       0.336  27.490  18.753  0.00  0.00    -0.004 A 
ENDBRANCH   9  10
ENDBRANCH   6   9
ENDBRANCH   2   6
ENDBRANCH   1   4
BRANCH   1  16
ATOM     16  C   LEU A   2       5.914  29.597  18.789  0.00  0.00    +0.241 C 
ATOM     17  O   LEU A   2       6.630  29.190  19.721  0.00  0.00    -0.273 OA
ATOM     18  N   ASP A   3       6.012  30.827  18.260  0.00  0.00    -0.298 N 
ATOM     19  H   ASP A   3       5.372  31.119  17.494  0.00  0.00    +0.150 HD
BRANCH  18  20
ATOM     20  CA  ASP A   3       7.035  31.765  18.772  0.00  0.00    +0.148 C 
BRANCH  20  21
ATOM     21  C   ASP A   3       6.811  32.072  20.262  0.00  0.00    +0.227 C 
ATOM     22  O   ASP A   3       7.755  32.084  21.065  0.00  0.00    -0.286 OA
ENDBRANCH  20  21
BRANCH  20  23
ATOM     23  CB  ASP A   3       7.072  33.031  17.951  0.00  0.00    +0.142 C 
BRANCH  23  24
ATOM     24  CG  ASP A   3       8.120  34.027  18.419  0.00  0.00    +0.367 C 
ATOM     25  OD2 ASP A   3       8.999  33.719  19.267  0.00  0.00    -0.246 OA
ATOM     26  OD1 ASP A   3       8.082  35.183  17.924  0.00  0.00    -0.246 OA
ENDBRANCH  23  24
ENDBRANCH  20  23
ENDBRANCH  18  20
ENDBRANCH   1  16
BRANCH   1  27
ATOM     27  CB  LEU A   2       5.235  27.998  16.927  0.00  0.00    +0.029 C 
BRANCH  27  28
ATOM     28  CG  LEU A   2       4.257  26.959  16.390  0.00  0.00    +0.002 C 
ATOM     29  CD2 LEU A   2       3.774  25.981  17.450  0.00  0.00    +0.000 C 
ATOM     30  CD1 LEU A   2       4.876  26.220  15.206  0.00  0.00    +0.000 C 
ENDBRANCH  27  28
ENDBRANCH   1  27
TORSDOF 12
REMARK  Name = ../refined-set-2016/2olb/2olb_pocket.pdb
REMARK  267 active torsions:
REMARK  status: ('A' for Active; 'I' for Inactive)
REMARK    1  A    between atoms: _1  and  _3
REMARK    2  A    between atoms: _3  and  _4
REMARK    3  A    between atoms: _3  and  _6
REMARK    4  A    between atoms: _6  and  _7
REMARK    5  A    between atoms: _12  and  _14
REMARK    6  A    between atoms: _14  and  _15
REMARK    7  A    between atoms: _17  and  _19
REMARK    8  A    between atoms: _19  and  _20
REMARK    9  A    between atoms: _19  and  _22
REMARK   10  A    between atoms: _22  and  _23
REMARK   11  A    between atoms: _23  and  _24
REMARK   12  A    between atoms: _29  and  _31
REMARK   13  A    between atoms: _31  and  _32
REMARK   14  A    between atoms: _31  and  _34
REMARK   15  A    between atoms: _34  and  _35
REMARK   16  A    between atoms: _38  and  _40
REMARK   17  A    between atoms: _40  and  _41
REMARK   18  A    between atoms: _40  and  _43
REMARK   19  A    between atoms: _43  and  _44
REMARK   20  A    between atoms: _44  and  _45
REMARK   21  A    between atoms: _48  and  _50
REMARK   22  A    between atoms: _50  and  _51
REMARK   23  A    between atoms: _53  and  _55
REMARK   24  A    between atoms: _55  and  _56
REMARK   25  A    between atoms: _55  and  _58
REMARK   26  A    between atoms: _62  and  _63
REMARK   27  A    between atoms: _68  and  _70
REMARK   28  A    between atoms: _70  and  _71
REMARK   29  A    between atoms: _70  and  _73
REMARK   30  A    between atoms: _73  and  _74
REMARK   31  A    between atoms: _74  and  _75
REMARK   32  A    between atoms: _78  and  _80
REMARK   33  A    between atoms: _80  and  _81
REMARK   34  A    between atoms: _80  and  _83
REMARK   35  A    between atoms: _83  and  _84
REMARK   36  A    between atoms: _86  and  _88
REMARK   37  A    between atoms: _88  and  _89
REMARK   38  A    between atoms: _88  and  _91
REMARK   39  A    between atoms: _91  and  _92
REMARK   40  A    between atoms: _97  and  _99
REMARK   41  A    between atoms: _99  and  _100
REMARK   42  A    between atoms: _99  and  _102
REMARK   43  A    between atoms: _102  and  _103
REMARK   44  A    between atoms: _103  and  _104
REMARK   45  A    between atoms: _104  and  _105
REMARK   46  A    between atoms: _115  and  _116
REMARK   47  A    between atoms: _121  and  _123
REMARK   48  A    between atoms: _123  and  _124
REMARK   49  A    between atoms: _123  and  _126
REMARK   50  A    between atoms: _126  and  _127
REMARK   51  A    between atoms: _132  and  _133
REMARK   52  A    between atoms: _135  and  _137
REMARK   53  A    between atoms: _137  and  _138
REMARK   54  A    between atoms: _137  and  _140
REMARK   55  A    between atoms: _140  and  _141
REMARK   56  A    between atoms: _146  and  _147
REMARK   57  A    between atoms: _149  and  _151
REMARK   58  A    between atoms: _151  and  _152
REMARK   59  A    between atoms: _151  and  _154
REMARK   60  A    between atoms: _157  and  _159
REMARK   61  A    between atoms: _159  and  _160
REMARK   62  A    between atoms: _159  and  _162
REMARK   63  A    between atoms: _162  and  _163
REMARK   64  A    between atoms: _169  and  _170
REMARK   65  A    between atoms: _175  and  _177
REMARK   66  A    between atoms: _177  and  _178
REMARK   67  A    between atoms: _177  and  _180
REMARK   68  A    between atoms: _180  and  _181
REMARK   69  A    between atoms: _183  and  _185
REMARK   70  A    between atoms: _185  and  _186
REMARK   71  A    between atoms: _185  and  _188
REMARK   72  A    between atoms: _188  and  _189
REMARK   73  A    between atoms: _189  and  _190
REMARK   74  A    between atoms: _193  and  _195
REMARK   75  A    between atoms: _195  and  _196
REMARK   76  A    between atoms: _195  and  _198
REMARK   77  A    between atoms: _198  and  _199
REMARK   78  A    between atoms: _204  and  _205
REMARK   79  A    between atoms: _207  and  _209
REMARK   80  A    between atoms: _209  and  _210
REMARK   81  A    between atoms: _209  and  _212
REMARK   82  A    between atoms: _212  and  _213
REMARK   83  A    between atoms: _218  and  _220
REMARK   84  A    between atoms: _220  and  _221
REMARK   85  A    between atoms: _220  and  _223
REMARK   86  A    between atoms: _223  and  _224
REMARK   87  A    between atoms: _229  and  _231
REMARK   88  A    between atoms: _231  and  _232
REMARK   89  A    between atoms: _231  and  _234
REMARK   90  A    between atoms: _234  and  _235
REMARK   91  A    between atoms: _235  and  _236
REMARK   92  A    between atoms: _238  and  _240
REMARK   93  A    between atoms: _240  and  _241
REMARK   94  A    between atoms: _240  and  _243
REMARK   95  A    between atoms: _243  and  _244
REMARK   96  A    between atoms: _249  and  _250
REMARK   97  A    between atoms: _252  and  _254
REMARK   98  A    between atoms: _254  and  _255
REMARK   99  A    between atoms: _254  and  _257
REMARK  100  A    between atoms: _257  and  _258
REMARK  101  A    between atoms: _261  and  _263
REMARK  102  A    between atoms: _263  and  _264
REMARK  103  A    between atoms: _263  and  _266
REMARK  104  A    between atoms: _266  and  _267
REMARK  105  A    between atoms: _267  and  _484
REMARK  106  A    between atoms: _268  and  _270
REMARK  107  A    between atoms: _270  and  _271
REMARK  108  A    between atoms: _270  and  _273
REMARK  109  A    between atoms: _273  and  _274
REMARK  110  A    between atoms: _277  and  _279
REMARK  111  A    between atoms: _279  and  _280
REMARK  112  A    between atoms: _279  and  _282
REMARK  113  A    between atoms: _282  and  _283
REMARK  114  A    between atoms: _288  and  _289
REMARK  115  A    between atoms: _291  and  _293
REMARK  116  A    between atoms: _293  and  _294
REMARK  117  A    between atoms: _293  and  _296
REMARK  118  A    between atoms: _296  and  _297
REMARK  119  A    between atoms: _302  and  _303
REMARK  120  A    between atoms: _305  and  _307
REMARK  121  A    between atoms: _307  and  _308
REMARK  122  A    between atoms: _307  and  _310
REMARK  123  A    between atoms: _310  and  _311
REMARK  124  A    between atoms: _311  and  _312
REMARK  125  A    between atoms: _315  and  _317
REMARK  126  A    between atoms: _317  and  _318
REMARK  127  A    between atoms: _317  and  _320
REMARK  128  A    between atoms: _320  and  _321
REMARK  129  A    between atoms: _326  and  _327
REMARK  130  A    between atoms: _329  and  _331
REMARK  131  A    between atoms: _331  and  _332
REMARK  132  A    between atoms: _331  and  _334
REMARK  133  A    between atoms: _334  and  _335
REMARK  134  A    between atoms: _340  and  _342
REMARK  135  A    between atoms: _342  and  _343
REMARK  136  A    between atoms: _342  and  _345
REMARK  137  A    between atoms: _345  and  _346
REMARK  138  A    between atoms: _349  and  _351
REMARK  139  A    between atoms: _351  and  _352
REMARK  140  A    between atoms: _351  and  _354
REMARK  141  A    between atoms: _354  and  _355
REMARK  142  A    between atoms: _360  and  _362
REMARK  143  A    between atoms: _362  and  _363
REMARK  144  A    between atoms: _362  and  _365
REMARK  145  A    between atoms: _365  and  _366
REMARK  146  A    between atoms: _376  and  _378
REMARK  147  A    between atoms: _378  and  _379
REMARK  148  A    between atoms: _378  and  _381
REMARK  149  A    between atoms: _381  and  _382
REMARK  150  A    between atoms: _388  and  _390
REMARK  151  A    between atoms: _390  and  _391
REMARK  152  A    between atoms: _390  and  _393
REMARK  153  A    between atoms: _393  and  _394
REMARK  154  A    between atoms: _397  and  _399
REMARK  155  A    between atoms: _399  and  _400
REMARK  156  A    between atoms: _399  and  _402
REMARK  157  A    between atoms: _402  and  _403
REMARK  158  A    between atoms: _406  and  _408
REMARK  159  A    between atoms: _408  and  _409
REMARK  160  A    between atoms: _408  and  _411
REMARK  161  A    between atoms: _411  and  _412
REMARK  162  A    between atoms: _412  and  _413
REMARK  163  A    between atoms: _413  and  _414
REMARK  164  A    between atoms: _423  and  _425
REMARK  165  A    between atoms: _425  and  _426
REMARK  166  A    between atoms: _425  and  _428
REMARK  167  A    between atoms: _428  and  _429
REMARK  168  A    between atoms: _434  and  _436
REMARK  169  A    between atoms: _436  and  _437
REMARK  170  A    between atoms: _436  and  _439
REMARK  171  A    between atoms: _439  and  _440
REMARK  172  A    between atoms: _440  and  _441
REMARK  173  A    between atoms: _441  and  _442
REMARK  174  A    between atoms: _451  and  _453
REMARK  175  A    between atoms: _453  and  _454
REMARK  176  A    between atoms: _457  and  _459
REMARK  177  A    between atoms: _459  and  _460
REMARK  178  A    between atoms: _462  and  _464
REMARK  179  A    between atoms: _464  and  _465
REMARK  180  A    between atoms: _464  and  _467
REMARK  181  A    between atoms: _467  and  _468
REMARK  182  A    between atoms: _478  and  _480
REMARK  183  A    between atoms: _480  and  _481
REMARK  184  A    between atoms: _480  and  _483
REMARK  185  A    between atoms: _483  and  _484
REMARK  186  A    between atoms: _485  and  _487
REMARK  187  A    between atoms: _487  and  _488
REMARK  188  A    between atoms: _491  and  _493
REMARK  189  A    between atoms: _493  and  _494
REMARK  190  A    between atoms: _493  and  _496
REMARK  191  A    between atoms: _496  and  _497
REMARK  192  A    between atoms: _500  and  _502
REMARK  193  A    between atoms: _502  and  _503
REMARK  194  A    between atoms: _502  and  _505
REMARK  195  A    between atoms: _505  and  _506
REMARK  196  A    between atoms: _511  and  _512
REMARK  197  A    between atoms: _514  and  _516
REMARK  198  A    between atoms: _516  and  _517
REMARK  199  A    between atoms: _516  and  _519
REMARK  200  A    between atoms: _519  and  _520
REMARK  201  A    between atoms: _522  and  _524
REMARK  202  A    between atoms: _524  and  _525
REMARK  203  A    between atoms: _524  and  _527
REMARK  204  A    between atoms: _527  and  _528
REMARK  205  A    between atoms: _534  and  _536
REMARK  206  A    between atoms: _536  and  _537
REMARK  207  A    between atoms: _536  and  _539
REMARK  208  A    between atoms: _539  and  _540
REMARK  209  A    between atoms: _543  and  _545
REMARK  210  A    between atoms: _545  and  _546
REMARK  211  A    between atoms: _545  and  _548
REMARK  212  A    between atoms: _548  and  _549
REMARK  213  A    between atoms: _551  and  _553
REMARK  214  A    between atoms: _553  and  _554
REMARK  215  A    between atoms: _553  and  _556
REMARK  216  A    between atoms: _556  and  _557
REMARK  217  A    between atoms: _559  and  _561
REMARK  218  A    between atoms: _561  and  _562
REMARK  219  A    between atoms: _561  and  _564
REMARK  220  A    between atoms: _564  and  _565
REMARK  221  A    between atoms: _570  and  _572
REMARK  222  A    between atoms: _572  and  _573
REMARK  223  A    between atoms: _572  and  _575
REMARK  224  A    between atoms: _575  and  _576
REMARK  225  A    between atoms: _581  and  _583
REMARK  226  A    between atoms: _583  and  _584
REMARK  227  A    between atoms: _583  and  _586
REMARK  228  A    between atoms: _586  and  _587
REMARK  229  A    between atoms: _590  and  _592
REMARK  230  A    between atoms: _592  and  _593
REMARK  231  A    between atoms: _596  and  _598
REMARK  232  A    between atoms: _598  and  _599
REMARK  233  A    between atoms: _598  and  _601
REMARK  234  A    between atoms: _601  and  _602
REMARK  235  A    between atoms: _607  and  _608
REMARK  236  A    between atoms: _610  and  _612
REMARK  237  A    between atoms: _612  and  _613
REMARK  238  A    between atoms: _612  and  _615
REMARK  239  A    between atoms: _615  and  _616
REMARK  240  A    between atoms: _621  and  _622
REMARK  241  A    between atoms: _624  and  _626
REMARK  242  A    between atoms: _626  and  _627
REMARK  243  A    between atoms: _626  and  _629
REMARK  244  A    between atoms: _632  and  _634
REMARK  245  A    between atoms: _634  and  _635
REMARK  246  A    between atoms: _634  and  _637
REMARK  247  A    between atoms: _637  and  _638
REMARK  248  A    between atoms: _643  and  _645
REMARK  249  A    between atoms: _645  and  _646
REMARK  250  A    between atoms: _649  and  _651
REMARK  251  A    between atoms: _651  and  _652
REMARK  252  A    between atoms: _651  and  _654
REMARK  253  A    between atoms: _654  and  _655
REMARK  254  A    between atoms: _655  and  _656
REMARK  255  A    between atoms: _656  and  _657
REMARK  256  A    between atoms: _666  and  _668
REMARK  257  A    between atoms: _668  and  _669
REMARK  258  A    between atoms: _668  and  _671
REMARK  259  A    between atoms: _671  and  _672
REMARK  260  A    between atoms: _675  and  _677
REMARK  261  A    between atoms: _677  and  _678
REMARK  262  A    between atoms: _677  and  _680
REMARK  263  A    between atoms: _680  and  _681
REMARK  264  A    between atoms: _684  and  _686
REMARK  265  A    between atoms: _686  and  _687
REMARK  266  A    between atoms: _686  and  _689
REMARK  267  A    between atoms: _689  and  _690
REMARK                            x       y       z     vdW  Elec       q    Type
REMARK                         _______ _______ _______ _____ _____    ______ ____
ROOT
ATOM      1  CA  ARG A   1       5.816  29.023  23.318  0.00  0.00    +0.145 C 
ENDROOT
BRANCH   1   2
ATOM      2  C   ARG A   1       7.330  28.963  23.419  0.00  0.00    +0.238 C 
ATOM      3  O   ARG A   1       7.833  28.682  24.517  0.00  0.00    -0.274 OA
ATOM      4  N   HIS A   2       8.032  29.240  22.293  0.00  0.00    -0.298 N 
ATOM      5  H   HIS A   2       7.556  29.461  21.395  0.00  0.00    +0.150 HD
BRANCH   4   6
ATOM      6  CA  HIS A   2       9.509  29.213  22.400  0.00  0.00    +0.143 C 
BRANCH   6   7
ATOM      7  C   HIS A   2      10.008  30.301  23.318  0.00  0.00    +0.227 C 
ATOM      8  O   HIS A   2      10.972  30.078  24.100  0.00  0.00    -0.286 OA
ENDBRANCH   6   7
BRANCH   6   9
ATOM      9  CB  HIS A   2      10.184  29.318  21.040  0.00  0.00    +0.075 C 
BRANCH   9  10
ATOM     10  CG  HIS A   2      10.111  27.975  20.368  0.00  0.00    +0.082 A 
ATOM     11  ND1 HIS A   2      10.951  26.939  20.728  0.00  0.00    -0.227 NA
ATOM     12  CE1 HIS A   2      10.654  25.865  19.990  0.00  0.00    +0.199 A 
ATOM     13  NE2 HIS A   2       9.648  26.200  19.175  0.00  0.00    -0.221 NA
ATOM     14  CD2 HIS A   2       9.286  27.509  19.416  0.00  0.00    +0.115 A 
ENDBRANCH   9  10
ENDBRANCH   6   9
ENDBRANCH   4   6
ENDBRANCH   1   2
BRANCH   1  15
ATOM     15  N   ARG A   1       5.406  30.181  22.491  0.00  0.00    -0.238 NA
ATOM     16  H   ARG A   1       4.913  30.033  21.587  0.00  0.00    +0.142 HD
ENDBRANCH   1  15
BRANCH   1  17
ATOM     17  CB  ARG A   1       5.208  27.773  22.710  0.00  0.00    +0.030 C 
BRANCH  17  18
ATOM     18  CG  ARG A   1       3.677  27.813  22.979  0.00  0.00    +0.045 C 
BRANCH  18  19
ATOM     19  CD  ARG A   1       2.973  26.820  22.115  0.00  0.00    +0.174 C 
BRANCH  19  20
ATOM     20  NE  ARG A   1       3.381  25.460  22.435  0.00  0.00    -0.265 N 
ATOM     21  HE  ARG A   1       3.872  25.302  23.338  0.00  0.00    +0.259 HD
ATOM     22  CZ  ARG A   1       3.171  24.414  21.660  0.00  0.00    +0.342 C 
ATOM     23  NH2 ARG A   1       3.602  23.228  22.090  0.00  0.00    -0.292 N 
ATOM     24 HH21 ARG A   1       4.085  23.152  23.008  0.00  0.00    +0.255 HD
ATOM     25 HH22 ARG A   1       3.455  22.379  21.508  0.00  0.00    +0.255 HD
ATOM     26  NH1 ARG A   1       2.564  24.538  20.461  0.00  0.00    -0.292 N 
ATOM     27 HH11 ARG A   1       2.251  25.473  20.131  0.00  0.00    +0.255 HD
ATOM     28 HH12 ARG A   1       2.409  23.698  19.867  0.00  0.00    +0.255 HD
ENDBRANCH  19  20
ENDBRANCH  18  19
ENDBRANCH  17  18
ENDBRANCH   1  17
TORSDOF 10
REMARK  Name = ../refined-set-2016/2olb/2olb_pocket.pdb
REMARK  267 active torsions:
REMARK  status: ('A' for Active; 'I' for Inactive)
REMARK    1  A    between atoms: _1  and  _3
REMARK    2  A    between atoms: _3  and  _4
REMARK    3  A    between atoms: _3  and  _6
REMARK    4  A    between atoms: _6  and  _7
REMARK    5  A    between atoms: _12  and  _14
REMARK    6  A    between atoms: _14  and  _15
REMARK    7  A    between atoms: _17  and  _19
REMARK    8  A    between atoms: _19  and  _20
REMARK    9  A    between atoms: _19  and  _22
REMARK   10  A    between atoms: _22  and  _23
REMARK   11  A    between atoms: _23  and  _24
REMARK   12  A    between atoms: _29  and  _31
REMARK   13  A    between atoms: _31  and  _32
REMARK   14  A    between atoms: _31  and  _34
REMARK   15  A    between atoms: _34  and  _35
REMARK   16  A    between atoms: _38  and  _40
REMARK   17  A    between atoms: _40  and  _41
REMARK   18  A    between atoms: _40  and  _43
REMARK   19  A    between atoms: _43  and  _44
REMARK   20  A    between atoms: _44  and  _45
REMARK   21  A    between atoms: _48  and  _50
REMARK   22  A    between atoms: _50  and  _51
REMARK   23  A    between atoms: _53  and  _55
REMARK   24  A    between atoms: _55  and  _56
REMARK   25  A    between atoms: _55  and  _58
REMARK   26  A    between atoms: _62  and  _63
REMARK   27  A    between atoms: _68  and  _70
REMARK   28  A    between atoms: _70  and  _71
REMARK   29  A    between atoms: _70  and  _73
REMARK   30  A    between atoms: _73  and  _74
REMARK   31  A    between atoms: _74  and  _75
REMARK   32  A    between atoms: _78  and  _80
REMARK   33  A    between atoms: _80  and  _81
REMARK   34  A    between atoms: _80  and  _83
REMARK   35  A    between atoms: _83  and  _84
REMARK   36  A    between atoms: _86  and  _88
REMARK   37  A    between atoms: _88  and  _89
REMARK   38  A    between atoms: _88  and  _91
REMARK   39  A    between atoms: _91  and  _92
REMARK   40  A    between atoms: _97  and  _99
REMARK   41  A    between atoms: _99  and  _100
REMARK   42  A    between atoms: _99  and  _102
REMARK   43  A    between atoms: _102  and  _103
REMARK   44  A    between atoms: _103  and  _104
REMARK   45  A    between atoms: _104  and  _105
REMARK   46  A    between atoms: _115  and  _116
REMARK   47  A    between atoms: _121  and  _123
REMARK   48  A    between atoms: _123  and  _124
REMARK   49  A    between atoms: _123  and  _126
REMARK   50  A    between atoms: _126  and  _127
REMARK   51  A    between atoms: _132  and  _133
REMARK   52  A    between atoms: _135  and  _137
REMARK   53  A    between atoms: _137  and  _138
REMARK   54  A    between atoms: _137  and  _140
REMARK   55  A    between atoms: _140  and  _141
REMARK   56  A    between atoms: _146  and  _147
REMARK   57  A    between atoms: _149  and  _151
REMARK   58  A    between atoms: _151  and  _152
REMARK   59  A    between atoms: _151  and  _154
REMARK   60  A    between atoms: _157  and  _159
REMARK   61  A    between atoms: _159  and  _160
REMARK   62  A    between atoms: _159  and  _162
REMARK   63  A    between atoms: _162  and  _163
REMARK   64  A    between atoms: _169  and  _170
REMARK   65  A    between atoms: _175  and  _177
REMARK   66  A    between atoms: _177  and  _178
REMARK   67  A    between atoms: _177  and  _180
REMARK   68  A    between atoms: _180  and  _181
REMARK   69  A    between atoms: _183  and  _185
REMARK   70  A    between atoms: _185  and  _186
REMARK   71  A    between atoms: _185  and  _188
REMARK   72  A    between atoms: _188  and  _189
REMARK   73  A    between atoms: _189  and  _190
REMARK   74  A    between atoms: _193  and  _195
REMARK   75  A    between atoms: _195  and  _196
REMARK   76  A    between atoms: _195  and  _198
REMARK   77  A    between atoms: _198  and  _199
REMARK   78  A    between atoms: _204  and  _205
REMARK   79  A    between atoms: _207  and  _209
REMARK   80  A    between atoms: _209  and  _210
REMARK   81  A    between atoms: _209  and  _212
REMARK   82  A    between atoms: _212  and  _213
REMARK   83  A    between atoms: _218  and  _220
REMARK   84  A    between atoms: _220  and  _221
REMARK   85  A    between atoms: _220  and  _223
REMARK   86  A    between atoms: _223  and  _224
REMARK   87  A    between atoms: _229  and  _231
REMARK   88  A    between atoms: _231  and  _232
REMARK   89  A    between atoms: _231  and  _234
REMARK   90  A    between atoms: _234  and  _235
REMARK   91  A    between atoms: _235  and  _236
REMARK   92  A    between atoms: _238  and  _240
REMARK   93  A    between atoms: _240  and  _241
REMARK   94  A    between atoms: _240  and  _243
REMARK   95  A    between atoms: _243  and  _244
REMARK   96  A    between atoms: _249  and  _250
REMARK   97  A    between atoms: _252  and  _254
REMARK   98  A    between atoms: _254  and  _255
REMARK   99  A    between atoms: _254  and  _257
REMARK  100  A    between atoms: _257  and  _258
REMARK  101  A    between atoms: _261  and  _263
REMARK  102  A    between atoms: _263  and  _264
REMARK  103  A    between atoms: _263  and  _266
REMARK  104  A    between atoms: _266  and  _267
REMARK  105  A    between atoms: _267  and  _484
REMARK  106  A    between atoms: _268  and  _270
REMARK  107  A    between atoms: _270  and  _271
REMARK  108  A    between atoms: _270  and  _273
REMARK  109  A    between atoms: _273  and  _274
REMARK  110  A    between atoms: _277  and  _279
REMARK  111  A    between atoms: _279  and  _280
REMARK  112  A    between atoms: _279  and  _282
REMARK  113  A    between atoms: _282  and  _283
REMARK  114  A    between atoms: _288  and  _289
REMARK  115  A    between atoms: _291  and  _293
REMARK  116  A    between atoms: _293  and  _294
REMARK  117  A    between atoms: _293  and  _296
REMARK  118  A    between atoms: _296  and  _297
REMARK  119  A    between atoms: _302  and  _303
REMARK  120  A    between atoms: _305  and  _307
REMARK  121  A    between atoms: _307  and  _308
REMARK  122  A    between atoms: _307  and  _310
REMARK  123  A    between atoms: _310  and  _311
REMARK  124  A    between atoms: _311  and  _312
REMARK  125  A    between atoms: _315  and  _317
REMARK  126  A    between atoms: _317  and  _318
REMARK  127  A    between atoms: _317  and  _320
REMARK  128  A    between atoms: _320  and  _321
REMARK  129  A    between atoms: _326  and  _327
REMARK  130  A    between atoms: _329  and  _331
REMARK  131  A    between atoms: _331  and  _332
REMARK  132  A    between atoms: _331  and  _334
REMARK  133  A    between atoms: _334  and  _335
REMARK  134  A    between atoms: _340  and  _342
REMARK  135  A    between atoms: _342  and  _343
REMARK  136  A    between atoms: _342  and  _345
REMARK  137  A    between atoms: _345  and  _346
REMARK  138  A    between atoms: _349  and  _351
REMARK  139  A    between atoms: _351  and  _352
REMARK  140  A    between atoms: _351  and  _354
REMARK  141  A    between atoms: _354  and  _355
REMARK  142  A    between atoms: _360  and  _362
REMARK  143  A    between atoms: _362  and  _363
REMARK  144  A    between atoms: _362  and  _365
REMARK  145  A    between atoms: _365  and  _366
REMARK  146  A    between atoms: _376  and  _378
REMARK  147  A    between atoms: _378  and  _379
REMARK  148  A    between atoms: _378  and  _381
REMARK  149  A    between atoms: _381  and  _382
REMARK  150  A    between atoms: _388  and  _390
REMARK  151  A    between atoms: _390  and  _391
REMARK  152  A    between atoms: _390  and  _393
REMARK  153  A    between atoms: _393  and  _394
REMARK  154  A    between atoms: _397  and  _399
REMARK  155  A    between atoms: _399  and  _400
REMARK  156  A    between atoms: _399  and  _402
REMARK  157  A    between atoms: _402  and  _403
REMARK  158  A    between atoms: _406  and  _408
REMARK  159  A    between atoms: _408  and  _409
REMARK  160  A    between atoms: _408  and  _411
REMARK  161  A    between atoms: _411  and  _412
REMARK  162  A    between atoms: _412  and  _413
REMARK  163  A    between atoms: _413  and  _414
REMARK  164  A    between atoms: _423  and  _425
REMARK  165  A    between atoms: _425  and  _426
REMARK  166  A    between atoms: _425  and  _428
REMARK  167  A    between atoms: _428  and  _429
REMARK  168  A    between atoms: _434  and  _436
REMARK  169  A    between atoms: _436  and  _437
REMARK  170  A    between atoms: _436  and  _439
REMARK  171  A    between atoms: _439  and  _440
REMARK  172  A    between atoms: _440  and  _441
REMARK  173  A    between atoms: _441  and  _442
REMARK  174  A    between atoms: _451  and  _453
REMARK  175  A    between atoms: _453  and  _454
REMARK  176  A    between atoms: _457  and  _459
REMARK  177  A    between atoms: _459  and  _460
REMARK  178  A    between atoms: _462  and  _464
REMARK  179  A    between atoms: _464  and  _465
REMARK  180  A    between atoms: _464  and  _467
REMARK  181  A    between atoms: _467  and  _468
REMARK  182  A    between atoms: _478  and  _480
REMARK  183  A    between atoms: _480  and  _481
REMARK  184  A    between atoms: _480  and  _483
REMARK  185  A    between atoms: _483  and  _484
REMARK  186  A    between atoms: _485  and  _487
REMARK  187  A    between atoms: _487  and  _488
REMARK  188  A    between atoms: _491  and  _493
REMARK  189  A    between atoms: _493  and  _494
REMARK  190  A    between atoms: _493  and  _496
REMARK  191  A    between atoms: _496  and  _497
REMARK  192  A    between atoms: _500  and  _502
REMARK  193  A    between atoms: _502  and  _503
REMARK  194  A    between atoms: _502  and  _505
REMARK  195  A    between atoms: _505  and  _506
REMARK  196  A    between atoms: _511  and  _512
REMARK  197  A    between atoms: _514  and  _516
REMARK  198  A    between atoms: _516  and  _517
REMARK  199  A    between atoms: _516  and  _519
REMARK  200  A    between atoms: _519  and  _520
REMARK  201  A    between atoms: _522  and  _524
REMARK  202  A    between atoms: _524  and  _525
REMARK  203  A    between atoms: _524  and  _527
REMARK  204  A    between atoms: _527  and  _528
REMARK  205  A    between atoms: _534  and  _536
REMARK  206  A    between atoms: _536  and  _537
REMARK  207  A    between atoms: _536  and  _539
REMARK  208  A    between atoms: _539  and  _540
REMARK  209  A    between atoms: _543  and  _545
REMARK  210  A    between atoms: _545  and  _546
REMARK  211  A    between atoms: _545  and  _548
REMARK  212  A    between atoms: _548  and  _549
REMARK  213  A    between atoms: _551  and  _553
REMARK  214  A    between atoms: _553  and  _554
REMARK  215  A    between atoms: _553  and  _556
REMARK  216  A    between atoms: _556  and  _557
REMARK  217  A    between atoms: _559  and  _561
REMARK  218  A    between atoms: _561  and  _562
REMARK  219  A    between atoms: _561  and  _564
REMARK  220  A    between atoms: _564  and  _565
REMARK  221  A    between atoms: _570  and  _572
REMARK  222  A    between atoms: _572  and  _573
REMARK  223  A    between atoms: _572  and  _575
REMARK  224  A    between atoms: _575  and  _576
REMARK  225  A    between atoms: _581  and  _583
REMARK  226  A    between atoms: _583  and  _584
REMARK  227  A    between atoms: _583  and  _586
REMARK  228  A    between atoms: _586  and  _587
REMARK  229  A    between atoms: _590  and  _592
REMARK  230  A    between atoms: _592  and  _593
REMARK  231  A    between atoms: _596  and  _598
REMARK  232  A    between atoms: _598  and  _599
REMARK  233  A    between atoms: _598  and  _601
REMARK  234  A    between atoms: _601  and  _602
REMARK  235  A    between atoms: _607  and  _608
REMARK  236  A    between atoms: _610  and  _612
REMARK  237  A    between atoms: _612  and  _613
REMARK  238  A    between atoms: _612  and  _615
REMARK  239  A    between atoms: _615  and  _616
REMARK  240  A    between atoms: _621  and  _622
REMARK  241  A    between atoms: _624  and  _626
REMARK  242  A    between atoms: _626  and  _627
REMARK  243  A    between atoms: _626  and  _629
REMARK  244  A    between atoms: _632  and  _634
REMARK  245  A    between atoms: _634  and  _635
REMARK  246  A    between atoms: _634  and  _637
REMARK  247  A    between atoms: _637  and  _638
REMARK  248  A    between atoms: _643  and  _645
REMARK  249  A    between atoms: _645  and  _646
REMARK  250  A    between atoms: _649  and  _651
REMARK  251  A    between atoms: _651  and  _652
REMARK  252  A    between atoms: _651  and  _654
REMARK  253  A    between atoms: _654  and  _655
REMARK  254  A    between atoms: _655  and  _656
REMARK  255  A    between atoms: _656  and  _657
REMARK  256  A    between atoms: _666  and  _668
REMARK  257  A    between atoms: _668  and  _669
REMARK  258  A    between atoms: _668  and  _671
REMARK  259  A    between atoms: _671  and  _672
REMARK  260  A    between atoms: _675  and  _677
REMARK  261  A    between atoms: _677  and  _678
REMARK  262  A    between atoms: _677  and  _680
REMARK  263  A    between atoms: _680  and  _681
REMARK  264  A    between atoms: _684  and  _686
REMARK  265  A    between atoms: _686  and  _687
REMARK  266  A    between atoms: _686  and  _689
REMARK  267  A    between atoms: _689  and  _690
REMARK                            x       y       z     vdW  Elec       q    Type
REMARK                         _______ _______ _______ _____ _____    ______ ____
ROOT
ATOM      1  C   SER A   1       9.928  11.950  19.549  0.00  0.00    +0.241 C 
ATOM      2  N   PHE A   2       9.287  11.443  20.587  0.00  0.00    -0.298 N 
ATOM      3  H   PHE A   2       9.289  10.411  20.712  0.00  0.00    +0.150 HD
ATOM      4  O   SER A   1       9.871  13.181  19.301  0.00  0.00    -0.274 OA
ENDROOT
BRANCH   1   5
ATOM      5  CA  SER A   1      10.725  10.991  18.673  0.00  0.00    +0.174 C 
BRANCH   5   6
ATOM      6  N   SER A   1      11.257   9.868  19.497  0.00  0.00    -0.236 NA
ATOM      7  H   SER A   1      11.038   8.876  19.275  0.00  0.00    +0.142 HD
ENDBRANCH   5   6
BRANCH   5   8
ATOM      8  CB  SER A   1       9.941  10.488  17.459  0.00  0.00    +0.163 C 
BRANCH   8   9
ATOM      9  OG  SER A   1       9.646  11.604  16.640  0.00  0.00    -0.380 OA
ATOM     10  H   SER A   1      10.491  12.032  16.350  0.00  0.00    +0.211 HD
ENDBRANCH   8   9
ENDBRANCH   5   8
ENDBRANCH   1   5
BRANCH   2  11
ATOM     11  CA  PHE A   2       8.594  12.238  21.543  0.00  0.00    +0.141 C 
BRANCH  11  12
ATOM     12  C   PHE A   2       9.492  12.585  22.729  0.00  0.00    +0.227 C 
ATOM     13  O   PHE A   2       9.674  13.740  23.105  0.00  0.00    -0.286 OA
ENDBRANCH  11  12
BRANCH  11  14
ATOM     14  CB  PHE A   2       7.408  11.411  22.177  0.00  0.00    +0.054 C 
BRANCH  14  15
ATOM     15  CG  PHE A   2       6.153  11.530  21.334  0.00  0.00    -0.020 A 
ATOM     16  CD2 PHE A   2       5.117  12.343  21.793  0.00  0.00    -0.004 A 
ATOM     17  CE2 PHE A   2       3.971  12.475  21.012  0.00  0.00    -0.000 A 
ATOM     18  CZ  PHE A   2       3.866  11.809  19.793  0.00  0.00    -0.000 A 
ATOM     19  CE1 PHE A   2       4.906  11.018  19.331  0.00  0.00    -0.000 A 
ATOM     20  CD1 PHE A   2       6.062  10.864  20.116  0.00  0.00    -0.004 A 
ENDBRANCH  14  15
ENDBRANCH  11  14
ENDBRANCH   2  11
TORSDOF 8
REMARK  Name = ../refined-set-2016/2olb/2olb_pocket.pdb
REMARK  267 active torsions:
REMARK  status: ('A' for Active; 'I' for Inactive)
REMARK    1  A    between atoms: _1  and  _3
REMARK    2  A    between atoms: _3  and  _4
REMARK    3  A    between atoms: _3  and  _6
REMARK    4  A    between atoms: _6  and  _7
REMARK    5  A    between atoms: _12  and  _14
REMARK    6  A    between atoms: _14  and  _15
REMARK    7  A    between atoms: _17  and  _19
REMARK    8  A    between atoms: _19  and  _20
REMARK    9  A    between atoms: _19  and  _22
REMARK   10  A    between atoms: _22  and  _23
REMARK   11  A    between atoms: _23  and  _24
REMARK   12  A    between atoms: _29  and  _31
REMARK   13  A    between atoms: _31  and  _32
REMARK   14  A    between atoms: _31  and  _34
REMARK   15  A    between atoms: _34  and  _35
REMARK   16  A    between atoms: _38  and  _40
REMARK   17  A    between atoms: _40  and  _41
REMARK   18  A    between atoms: _40  and  _43
REMARK   19  A    between atoms: _43  and  _44
REMARK   20  A    between atoms: _44  and  _45
REMARK   21  A    between atoms: _48  and  _50
REMARK   22  A    between atoms: _50  and  _51
REMARK   23  A    between atoms: _53  and  _55
REMARK   24  A    between atoms: _55  and  _56
REMARK   25  A    between atoms: _55  and  _58
REMARK   26  A    between atoms: _62  and  _63
REMARK   27  A    between atoms: _68  and  _70
REMARK   28  A    between atoms: _70  and  _71
REMARK   29  A    between atoms: _70  and  _73
REMARK   30  A    between atoms: _73  and  _74
REMARK   31  A    between atoms: _74  and  _75
REMARK   32  A    between atoms: _78  and  _80
REMARK   33  A    between atoms: _80  and  _81
REMARK   34  A    between atoms: _80  and  _83
REMARK   35  A    between atoms: _83  and  _84
REMARK   36  A    between atoms: _86  and  _88
REMARK   37  A    between atoms: _88  and  _89
REMARK   38  A    between atoms: _88  and  _91
REMARK   39  A    between atoms: _91  and  _92
REMARK   40  A    between atoms: _97  and  _99
REMARK   41  A    between atoms: _99  and  _100
REMARK   42  A    between atoms: _99  and  _102
REMARK   43  A    between atoms: _102  and  _103
REMARK   44  A    between atoms: _103  and  _104
REMARK   45  A    between atoms: _104  and  _105
REMARK   46  A    between atoms: _115  and  _116
REMARK   47  A    between atoms: _121  and  _123
REMARK   48  A    between atoms: _123  and  _124
REMARK   49  A    between atoms: _123  and  _126
REMARK   50  A    between atoms: _126  and  _127
REMARK   51  A    between atoms: _132  and  _133
REMARK   52  A    between atoms: _135  and  _137
REMARK   53  A    between atoms: _137  and  _138
REMARK   54  A    between atoms: _137  and  _140
REMARK   55  A    between atoms: _140  and  _141
REMARK   56  A    between atoms: _146  and  _147
REMARK   57  A    between atoms: _149  and  _151
REMARK   58  A    between atoms: _151  and  _152
REMARK   59  A    between atoms: _151  and  _154
REMARK   60  A    between atoms: _157  and  _159
REMARK   61  A    between atoms: _159  and  _160
REMARK   62  A    between atoms: _159  and  _162
REMARK   63  A    between atoms: _162  and  _163
REMARK   64  A    between atoms: _169  and  _170
REMARK   65  A    between atoms: _175  and  _177
REMARK   66  A    between atoms: _177  and  _178
REMARK   67  A    between atoms: _177  and  _180
REMARK   68  A    between atoms: _180  and  _181
REMARK   69  A    between atoms: _183  and  _185
REMARK   70  A    between atoms: _185  and  _186
REMARK   71  A    between atoms: _185  and  _188
REMARK   72  A    between atoms: _188  and  _189
REMARK   73  A    between atoms: _189  and  _190
REMARK   74  A    between atoms: _193  and  _195
REMARK   75  A    between atoms: _195  and  _196
REMARK   76  A    between atoms: _195  and  _198
REMARK   77  A    between atoms: _198  and  _199
REMARK   78  A    between atoms: _204  and  _205
REMARK   79  A    between atoms: _207  and  _209
REMARK   80  A    between atoms: _209  and  _210
REMARK   81  A    between atoms: _209  and  _212
REMARK   82  A    between atoms: _212  and  _213
REMARK   83  A    between atoms: _218  and  _220
REMARK   84  A    between atoms: _220  and  _221
REMARK   85  A    between atoms: _220  and  _223
REMARK   86  A    between atoms: _223  and  _224
REMARK   87  A    between atoms: _229  and  _231
REMARK   88  A    between atoms: _231  and  _232
REMARK   89  A    between atoms: _231  and  _234
REMARK   90  A    between atoms: _234  and  _235
REMARK   91  A    between atoms: _235  and  _236
REMARK   92  A    between atoms: _238  and  _240
REMARK   93  A    between atoms: _240  and  _241
REMARK   94  A    between atoms: _240  and  _243
REMARK   95  A    between atoms: _243  and  _244
REMARK   96  A    between atoms: _249  and  _250
REMARK   97  A    between atoms: _252  and  _254
REMARK   98  A    between atoms: _254  and  _255
REMARK   99  A    between atoms: _254  and  _257
REMARK  100  A    between atoms: _257  and  _258
REMARK  101  A    between atoms: _261  and  _263
REMARK  102  A    between atoms: _263  and  _264
REMARK  103  A    between atoms: _263  and  _266
REMARK  104  A    between atoms: _266  and  _267
REMARK  105  A    between atoms: _267  and  _484
REMARK  106  A    between atoms: _268  and  _270
REMARK  107  A    between atoms: _270  and  _271
REMARK  108  A    between atoms: _270  and  _273
REMARK  109  A    between atoms: _273  and  _274
REMARK  110  A    between atoms: _277  and  _279
REMARK  111  A    between atoms: _279  and  _280
REMARK  112  A    between atoms: _279  and  _282
REMARK  113  A    between atoms: _282  and  _283
REMARK  114  A    between atoms: _288  and  _289
REMARK  115  A    between atoms: _291  and  _293
REMARK  116  A    between atoms: _293  and  _294
REMARK  117  A    between atoms: _293  and  _296
REMARK  118  A    between atoms: _296  and  _297
REMARK  119  A    between atoms: _302  and  _303
REMARK  120  A    between atoms: _305  and  _307
REMARK  121  A    between atoms: _307  and  _308
REMARK  122  A    between atoms: _307  and  _310
REMARK  123  A    between atoms: _310  and  _311
REMARK  124  A    between atoms: _311  and  _312
REMARK  125  A    between atoms: _315  and  _317
REMARK  126  A    between atoms: _317  and  _318
REMARK  127  A    between atoms: _317  and  _320
REMARK  128  A    between atoms: _320  and  _321
REMARK  129  A    between atoms: _326  and  _327
REMARK  130  A    between atoms: _329  and  _331
REMARK  131  A    between atoms: _331  and  _332
REMARK  132  A    between atoms: _331  and  _334
REMARK  133  A    between atoms: _334  and  _335
REMARK  134  A    between atoms: _340  and  _342
REMARK  135  A    between atoms: _342  and  _343
REMARK  136  A    between atoms: _342  and  _345
REMARK  137  A    between atoms: _345  and  _346
REMARK  138  A    between atoms: _349  and  _351
REMARK  139  A    between atoms: _351  and  _352
REMARK  140  A    between atoms: _351  and  _354
REMARK  141  A    between atoms: _354  and  _355
REMARK  142  A    between atoms: _360  and  _362
REMARK  143  A    between atoms: _362  and  _363
REMARK  144  A    between atoms: _362  and  _365
REMARK  145  A    between atoms: _365  and  _366
REMARK  146  A    between atoms: _376  and  _378
REMARK  147  A    between atoms: _378  and  _379
REMARK  148  A    between atoms: _378  and  _381
REMARK  149  A    between atoms: _381  and  _382
REMARK  150  A    between atoms: _388  and  _390
REMARK  151  A    between atoms: _390  and  _391
REMARK  152  A    between atoms: _390  and  _393
REMARK  153  A    between atoms: _393  and  _394
REMARK  154  A    between atoms: _397  and  _399
REMARK  155  A    between atoms: _399  and  _400
REMARK  156  A    between atoms: _399  and  _402
REMARK  157  A    between atoms: _402  and  _403
REMARK  158  A    between atoms: _406  and  _408
REMARK  159  A    between atoms: _408  and  _409
REMARK  160  A    between atoms: _408  and  _411
REMARK  161  A    between atoms: _411  and  _412
REMARK  162  A    between atoms: _412  and  _413
REMARK  163  A    between atoms: _413  and  _414
REMARK  164  A    between atoms: _423  and  _425
REMARK  165  A    between atoms: _425  and  _426
REMARK  166  A    between atoms: _425  and  _428
REMARK  167  A    between atoms: _428  and  _429
REMARK  168  A    between atoms: _434  and  _436
REMARK  169  A    between atoms: _436  and  _437
REMARK  170  A    between atoms: _436  and  _439
REMARK  171  A    between atoms: _439  and  _440
REMARK  172  A    between atoms: _440  and  _441
REMARK  173  A    between atoms: _441  and  _442
REMARK  174  A    between atoms: _451  and  _453
REMARK  175  A    between atoms: _453  and  _454
REMARK  176  A    between atoms: _457  and  _459
REMARK  177  A    between atoms: _459  and  _460
REMARK  178  A    between atoms: _462  and  _464
REMARK  179  A    between atoms: _464  and  _465
REMARK  180  A    between atoms: _464  and  _467
REMARK  181  A    between atoms: _467  and  _468
REMARK  182  A    between atoms: _478  and  _480
REMARK  183  A    between atoms: _480  and  _481
REMARK  184  A    between atoms: _480  and  _483
REMARK  185  A    between atoms: _483  and  _484
REMARK  186  A    between atoms: _485  and  _487
REMARK  187  A    between atoms: _487  and  _488
REMARK  188  A    between atoms: _491  and  _493
REMARK  189  A    between atoms: _493  and  _494
REMARK  190  A    between atoms: _493  and  _496
REMARK  191  A    between atoms: _496  and  _497
REMARK  192  A    between atoms: _500  and  _502
REMARK  193  A    between atoms: _502  and  _503
REMARK  194  A    between atoms: _502  and  _505
REMARK  195  A    between atoms: _505  and  _506
REMARK  196  A    between atoms: _511  and  _512
REMARK  197  A    between atoms: _514  and  _516
REMARK  198  A    between atoms: _516  and  _517
REMARK  199  A    between atoms: _516  and  _519
REMARK  200  A    between atoms: _519  and  _520
REMARK  201  A    between atoms: _522  and  _524
REMARK  202  A    between atoms: _524  and  _525
REMARK  203  A    between atoms: _524  and  _527
REMARK  204  A    between atoms: _527  and  _528
REMARK  205  A    between atoms: _534  and  _536
REMARK  206  A    between atoms: _536  and  _537
REMARK  207  A    between atoms: _536  and  _539
REMARK  208  A    between atoms: _539  and  _540
REMARK  209  A    between atoms: _543  and  _545
REMARK  210  A    between atoms: _545  and  _546
REMARK  211  A    between atoms: _545  and  _548
REMARK  212  A    between atoms: _548  and  _549
REMARK  213  A    between atoms: _551  and  _553
REMARK  214  A    between atoms: _553  and  _554
REMARK  215  A    between atoms: _553  and  _556
REMARK  216  A    between atoms: _556  and  _557
REMARK  217  A    between atoms: _559  and  _561
REMARK  218  A    between atoms: _561  and  _562
REMARK  219  A    between atoms: _561  and  _564
REMARK  220  A    between atoms: _564  and  _565
REMARK  221  A    between atoms: _570  and  _572
REMARK  222  A    between atoms: _572  and  _573
REMARK  223  A    between atoms: _572  and  _575
REMARK  224  A    between atoms: _575  and  _576
REMARK  225  A    between atoms: _581  and  _583
REMARK  226  A    between atoms: _583  and  _584
REMARK  227  A    between atoms: _583  and  _586
REMARK  228  A    between atoms: _586  and  _587
REMARK  229  A    between atoms: _590  and  _592
REMARK  230  A    between atoms: _592  and  _593
REMARK  231  A    between atoms: _596  and  _598
REMARK  232  A    between atoms: _598  and  _599
REMARK  233  A    between atoms: _598  and  _601
REMARK  234  A    between atoms: _601  and  _602
REMARK  235  A    between atoms: _607  and  _608
REMARK  236  A    between atoms: _610  and  _612
REMARK  237  A    between atoms: _612  and  _613
REMARK  238  A    between atoms: _612  and  _615
REMARK  239  A    between atoms: _615  and  _616
REMARK  240  A    between atoms: _621  and  _622
REMARK  241  A    between atoms: _624  and  _626
REMARK  242  A    between atoms: _626  and  _627
REMARK  243  A    between atoms: _626  and  _629
REMARK  244  A    between atoms: _632  and  _634
REMARK  245  A    between atoms: _634  and  _635
REMARK  246  A    between atoms: _634  and  _637
REMARK  247  A    between atoms: _637  and  _638
REMARK  248  A    between atoms: _643  and  _645
REMARK  249  A    between atoms: _645  and  _646
REMARK  250  A    between atoms: _649  and  _651
REMARK  251  A    between atoms: _651  and  _652
REMARK  252  A    between atoms: _651  and  _654
REMARK  253  A    between atoms: _654  and  _655
REMARK  254  A    between atoms: _655  and  _656
REMARK  255  A    between atoms: _656  and  _657
REMARK  256  A    between atoms: _666  and  _668
REMARK  257  A    between atoms: _668  and  _669
REMARK  258  A    between atoms: _668  and  _671
REMARK  259  A    between atoms: _671  and  _672
REMARK  260  A    between atoms: _675  and  _677
REMARK  261  A    between atoms: _677  and  _678
REMARK  262  A    between atoms: _677  and  _680
REMARK  263  A    between atoms: _680  and  _681
REMARK  264  A    between atoms: _684  and  _686
REMARK  265  A    between atoms: _686  and  _687
REMARK  266  A    between atoms: _686  and  _689
REMARK  267  A    between atoms: _689  and  _690
REMARK                            x       y       z     vdW  Elec       q    Type
REMARK                         _______ _______ _______ _____ _____    ______ ____
ROOT
ATOM      1  CA  THR A   1      11.644  16.833  23.043  0.00  0.00    +0.160 C 
ENDROOT
BRANCH   1   2
ATOM      2  N   THR A   1      12.072  15.444  22.969  0.00  0.00    -0.237 NA
ATOM      3  H   THR A   1      11.395  14.697  22.714  0.00  0.00    +0.142 HD
ENDBRANCH   1   2
BRANCH   1   4
ATOM      4  C   THR A   1      11.532  17.373  24.440  0.00  0.00    +0.227 C 
ATOM      5  O   THR A   1      11.376  18.610  24.591  0.00  0.00    -0.287 OA
ENDBRANCH   1   4
BRANCH   1   6
ATOM      6  CB  THR A   1      10.305  17.029  22.279  0.00  0.00    +0.134 C 
ATOM      7  CG2 THR A   1      10.471  16.523  20.846  0.00  0.00    +0.034 C 
BRANCH   6   8
ATOM      8  OG1 THR A   1       9.287  16.326  22.974  0.00  0.00    -0.383 OA
ATOM      9  HG1 THR A   1       9.519  15.364  23.012  0.00  0.00    +0.210 HD
ENDBRANCH   6   8
ENDBRANCH   1   6
TORSDOF 4
REMARK  Name = ../refined-set-2016/2olb/2olb_pocket.pdb
REMARK  267 active torsions:
REMARK  status: ('A' for Active; 'I' for Inactive)
REMARK    1  A    between atoms: _1  and  _3
REMARK    2  A    between atoms: _3  and  _4
REMARK    3  A    between atoms: _3  and  _6
REMARK    4  A    between atoms: _6  and  _7
REMARK    5  A    between atoms: _12  and  _14
REMARK    6  A    between atoms: _14  and  _15
REMARK    7  A    between atoms: _17  and  _19
REMARK    8  A    between atoms: _19  and  _20
REMARK    9  A    between atoms: _19  and  _22
REMARK   10  A    between atoms: _22  and  _23
REMARK   11  A    between atoms: _23  and  _24
REMARK   12  A    between atoms: _29  and  _31
REMARK   13  A    between atoms: _31  and  _32
REMARK   14  A    between atoms: _31  and  _34
REMARK   15  A    between atoms: _34  and  _35
REMARK   16  A    between atoms: _38  and  _40
REMARK   17  A    between atoms: _40  and  _41
REMARK   18  A    between atoms: _40  and  _43
REMARK   19  A    between atoms: _43  and  _44
REMARK   20  A    between atoms: _44  and  _45
REMARK   21  A    between atoms: _48  and  _50
REMARK   22  A    between atoms: _50  and  _51
REMARK   23  A    between atoms: _53  and  _55
REMARK   24  A    between atoms: _55  and  _56
REMARK   25  A    between atoms: _55  and  _58
REMARK   26  A    between atoms: _62  and  _63
REMARK   27  A    between atoms: _68  and  _70
REMARK   28  A    between atoms: _70  and  _71
REMARK   29  A    between atoms: _70  and  _73
REMARK   30  A    between atoms: _73  and  _74
REMARK   31  A    between atoms: _74  and  _75
REMARK   32  A    between atoms: _78  and  _80
REMARK   33  A    between atoms: _80  and  _81
REMARK   34  A    between atoms: _80  and  _83
REMARK   35  A    between atoms: _83  and  _84
REMARK   36  A    between atoms: _86  and  _88
REMARK   37  A    between atoms: _88  and  _89
REMARK   38  A    between atoms: _88  and  _91
REMARK   39  A    between atoms: _91  and  _92
REMARK   40  A    between atoms: _97  and  _99
REMARK   41  A    between atoms: _99  and  _100
REMARK   42  A    between atoms: _99  and  _102
REMARK   43  A    between atoms: _102  and  _103
REMARK   44  A    between atoms: _103  and  _104
REMARK   45  A    between atoms: _104  and  _105
REMARK   46  A    between atoms: _115  and  _116
REMARK   47  A    between atoms: _121  and  _123
REMARK   48  A    between atoms: _123  and  _124
REMARK   49  A    between atoms: _123  and  _126
REMARK   50  A    between atoms: _126  and  _127
REMARK   51  A    between atoms: _132  and  _133
REMARK   52  A    between atoms: _135  and  _137
REMARK   53  A    between atoms: _137  and  _138
REMARK   54  A    between atoms: _137  and  _140
REMARK   55  A    between atoms: _140  and  _141
REMARK   56  A    between atoms: _146  and  _147
REMARK   57  A    between atoms: _149  and  _151
REMARK   58  A    between atoms: _151  and  _152
REMARK   59  A    between atoms: _151  and  _154
REMARK   60  A    between atoms: _157  and  _159
REMARK   61  A    between atoms: _159  and  _160
REMARK   62  A    between atoms: _159  and  _162
REMARK   63  A    between atoms: _162  and  _163
REMARK   64  A    between atoms: _169  and  _170
REMARK   65  A    between atoms: _175  and  _177
REMARK   66  A    between atoms: _177  and  _178
REMARK   67  A    between atoms: _177  and  _180
REMARK   68  A    between atoms: _180  and  _181
REMARK   69  A    between atoms: _183  and  _185
REMARK   70  A    between atoms: _185  and  _186
REMARK   71  A    between atoms: _185  and  _188
REMARK   72  A    between atoms: _188  and  _189
REMARK   73  A    between atoms: _189  and  _190
REMARK   74  A    between atoms: _193  and  _195
REMARK   75  A    between atoms: _195  and  _196
REMARK   76  A    between atoms: _195  and  _198
REMARK   77  A    between atoms: _198  and  _199
REMARK   78  A    between atoms: _204  and  _205
REMARK   79  A    between atoms: _207  and  _209
REMARK   80  A    between atoms: _209  and  _210
REMARK   81  A    between atoms: _209  and  _212
REMARK   82  A    between atoms: _212  and  _213
REMARK   83  A    between atoms: _218  and  _220
REMARK   84  A    between atoms: _220  and  _221
REMARK   85  A    between atoms: _220  and  _223
REMARK   86  A    between atoms: _223  and  _224
REMARK   87  A    between atoms: _229  and  _231
REMARK   88  A    between atoms: _231  and  _232
REMARK   89  A    between atoms: _231  and  _234
REMARK   90  A    between atoms: _234  and  _235
REMARK   91  A    between atoms: _235  and  _236
REMARK   92  A    between atoms: _238  and  _240
REMARK   93  A    between atoms: _240  and  _241
REMARK   94  A    between atoms: _240  and  _243
REMARK   95  A    between atoms: _243  and  _244
REMARK   96  A    between atoms: _249  and  _250
REMARK   97  A    between atoms: _252  and  _254
REMARK   98  A    between atoms: _254  and  _255
REMARK   99  A    between atoms: _254  and  _257
REMARK  100  A    between atoms: _257  and  _258
REMARK  101  A    between atoms: _261  and  _263
REMARK  102  A    between atoms: _263  and  _264
REMARK  103  A    between atoms: _263  and  _266
REMARK  104  A    between atoms: _266  and  _267
REMARK  105  A    between atoms: _267  and  _484
REMARK  106  A    between atoms: _268  and  _270
REMARK  107  A    between atoms: _270  and  _271
REMARK  108  A    between atoms: _270  and  _273
REMARK  109  A    between atoms: _273  and  _274
REMARK  110  A    between atoms: _277  and  _279
REMARK  111  A    between atoms: _279  and  _280
REMARK  112  A    between atoms: _279  and  _282
REMARK  113  A    between atoms: _282  and  _283
REMARK  114  A    between atoms: _288  and  _289
REMARK  115  A    between atoms: _291  and  _293
REMARK  116  A    between atoms: _293  and  _294
REMARK  117  A    between atoms: _293  and  _296
REMARK  118  A    between atoms: _296  and  _297
REMARK  119  A    between atoms: _302  and  _303
REMARK  120  A    between atoms: _305  and  _307
REMARK  121  A    between atoms: _307  and  _308
REMARK  122  A    between atoms: _307  and  _310
REMARK  123  A    between atoms: _310  and  _311
REMARK  124  A    between atoms: _311  and  _312
REMARK  125  A    between atoms: _315  and  _317
REMARK  126  A    between atoms: _317  and  _318
REMARK  127  A    between atoms: _317  and  _320
REMARK  128  A    between atoms: _320  and  _321
REMARK  129  A    between atoms: _326  and  _327
REMARK  130  A    between atoms: _329  and  _331
REMARK  131  A    between atoms: _331  and  _332
REMARK  132  A    between atoms: _331  and  _334
REMARK  133  A    between atoms: _334  and  _335
REMARK  134  A    between atoms: _340  and  _342
REMARK  135  A    between atoms: _342  and  _343
REMARK  136  A    between atoms: _342  and  _345
REMARK  137  A    between atoms: _345  and  _346
REMARK  138  A    between atoms: _349  and  _351
REMARK  139  A    between atoms: _351  and  _352
REMARK  140  A    between atoms: _351  and  _354
REMARK  141  A    between atoms: _354  and  _355
REMARK  142  A    between atoms: _360  and  _362
REMARK  143  A    between atoms: _362  and  _363
REMARK  144  A    between atoms: _362  and  _365
REMARK  145  A    between atoms: _365  and  _366
REMARK  146  A    between atoms: _376  and  _378
REMARK  147  A    between atoms: _378  and  _379
REMARK  148  A    between atoms: _378  and  _381
REMARK  149  A    between atoms: _381  and  _382
REMARK  150  A    between atoms: _388  and  _390
REMARK  151  A    between atoms: _390  and  _391
REMARK  152  A    between atoms: _390  and  _393
REMARK  153  A    between atoms: _393  and  _394
REMARK  154  A    between atoms: _397  and  _399
REMARK  155  A    between atoms: _399  and  _400
REMARK  156  A    between atoms: _399  and  _402
REMARK  157  A    between atoms: _402  and  _403
REMARK  158  A    between atoms: _406  and  _408
REMARK  159  A    between atoms: _408  and  _409
REMARK  160  A    between atoms: _408  and  _411
REMARK  161  A    between atoms: _411  and  _412
REMARK  162  A    between atoms: _412  and  _413
REMARK  163  A    between atoms: _413  and  _414
REMARK  164  A    between atoms: _423  and  _425
REMARK  165  A    between atoms: _425  and  _426
REMARK  166  A    between atoms: _425  and  _428
REMARK  167  A    between atoms: _428  and  _429
REMARK  168  A    between atoms: _434  and  _436
REMARK  169  A    between atoms: _436  and  _437
REMARK  170  A    between atoms: _436  and  _439
REMARK  171  A    between atoms: _439  and  _440
REMARK  172  A    between atoms: _440  and  _441
REMARK  173  A    between atoms: _441  and  _442
REMARK  174  A    between atoms: _451  and  _453
REMARK  175  A    between atoms: _453  and  _454
REMARK  176  A    between atoms: _457  and  _459
REMARK  177  A    between atoms: _459  and  _460
REMARK  178  A    between atoms: _462  and  _464
REMARK  179  A    between atoms: _464  and  _465
REMARK  180  A    between atoms: _464  and  _467
REMARK  181  A    between atoms: _467  and  _468
REMARK  182  A    between atoms: _478  and  _480
REMARK  183  A    between atoms: _480  and  _481
REMARK  184  A    between atoms: _480  and  _483
REMARK  185  A    between atoms: _483  and  _484
REMARK  186  A    between atoms: _485  and  _487
REMARK  187  A    between atoms: _487  and  _488
REMARK  188  A    between atoms: _491  and  _493
REMARK  189  A    between atoms: _493  and  _494
REMARK  190  A    between atoms: _493  and  _496
REMARK  191  A    between atoms: _496  and  _497
REMARK  192  A    between atoms: _500  and  _502
REMARK  193  A    between atoms: _502  and  _503
REMARK  194  A    between atoms: _502  and  _505
REMARK  195  A    between atoms: _505  and  _506
REMARK  196  A    between atoms: _511  and  _512
REMARK  197  A    between atoms: _514  and  _516
REMARK  198  A    between atoms: _516  and  _517
REMARK  199  A    between atoms: _516  and  _519
REMARK  200  A    between atoms: _519  and  _520
REMARK  201  A    between atoms: _522  and  _524
REMARK  202  A    between atoms: _524  and  _525
REMARK  203  A    between atoms: _524  and  _527
REMARK  204  A    between atoms: _527  and  _528
REMARK  205  A    between atoms: _534  and  _536
REMARK  206  A    between atoms: _536  and  _537
REMARK  207  A    between atoms: _536  and  _539
REMARK  208  A    between atoms: _539  and  _540
REMARK  209  A    between atoms: _543  and  _545
REMARK  210  A    between atoms: _545  and  _546
REMARK  211  A    between atoms: _545  and  _548
REMARK  212  A    between atoms: _548  and  _549
REMARK  213  A    between atoms: _551  and  _553
REMARK  214  A    between atoms: _553  and  _554
REMARK  215  A    between atoms: _553  and  _556
REMARK  216  A    between atoms: _556  and  _557
REMARK  217  A    between atoms: _559  and  _561
REMARK  218  A    between atoms: _561  and  _562
REMARK  219  A    between atoms: _561  and  _564
REMARK  220  A    between atoms: _564  and  _565
REMARK  221  A    between atoms: _570  and  _572
REMARK  222  A    between atoms: _572  and  _573
REMARK  223  A    between atoms: _572  and  _575
REMARK  224  A    between atoms: _575  and  _576
REMARK  225  A    between atoms: _581  and  _583
REMARK  226  A    between atoms: _583  and  _584
REMARK  227  A    between atoms: _583  and  _586
REMARK  228  A    between atoms: _586  and  _587
REMARK  229  A    between atoms: _590  and  _592
REMARK  230  A    between atoms: _592  and  _593
REMARK  231  A    between atoms: _596  and  _598
REMARK  232  A    between atoms: _598  and  _599
REMARK  233  A    between atoms: _598  and  _601
REMARK  234  A    between atoms: _601  and  _602
REMARK  235  A    between atoms: _607  and  _608
REMARK  236  A    between atoms: _610  and  _612
REMARK  237  A    between atoms: _612  and  _613
REMARK  238  A    between atoms: _612  and  _615
REMARK  239  A    between atoms: _615  and  _616
REMARK  240  A    between atoms: _621  and  _622
REMARK  241  A    between atoms: _624  and  _626
REMARK  242  A    between atoms: _626  and  _627
REMARK  243  A    between atoms: _626  and  _629
REMARK  244  A    between atoms: _632  and  _634
REMARK  245  A    between atoms: _634  and  _635
REMARK  246  A    between atoms: _634  and  _637
REMARK  247  A    between atoms: _637  and  _638
REMARK  248  A    between atoms: _643  and  _645
REMARK  249  A    between atoms: _645  and  _646
REMARK  250  A    between atoms: _649  and  _651
REMARK  251  A    between atoms: _651  and  _652
REMARK  252  A    between atoms: _651  and  _654
REMARK  253  A    between atoms: _654  and  _655
REMARK  254  A    between atoms: _655  and  _656
REMARK  255  A    between atoms: _656  and  _657
REMARK  256  A    between atoms: _666  and  _668
REMARK  257  A    between atoms: _668  and  _669
REMARK  258  A    between atoms: _668  and  _671
REMARK  259  A    between atoms: _671  and  _672
REMARK  260  A    between atoms: _675  and  _677
REMARK  261  A    between atoms: _677  and  _678
REMARK  262  A    between atoms: _677  and  _680
REMARK  263  A    between atoms: _680  and  _681
REMARK  264  A    between atoms: _684  and  _686
REMARK  265  A    between atoms: _686  and  _687
REMARK  266  A    between atoms: _686  and  _689
REMARK  267  A    between atoms: _689  and  _690
REMARK                            x       y       z     vdW  Elec       q    Type
REMARK                         _______ _______ _______ _____ _____    ______ ____
ROOT
ATOM      1  C   ASN A   3      11.058  21.660  21.990  0.00  0.00    +0.241 C 
ATOM      2  N   ASN A   4      11.803  21.815  23.096  0.00  0.00    -0.297 N 
ATOM      3  H   ASN A   4      12.832  21.914  22.984  0.00  0.00    +0.150 HD
ATOM      4  O   ASN A   3       9.813  21.594  22.097  0.00  0.00    -0.273 OA
ENDROOT
BRANCH   2   5
ATOM      5  CA  ASN A   4      11.254  21.852  24.437  0.00  0.00    +0.158 C 
BRANCH   5   6
ATOM      6  C   ASN A   4      10.618  23.175  24.836  0.00  0.00    +0.241 C 
ATOM      7  O   ASN A   4      11.174  24.062  25.458  0.00  0.00    -0.273 OA
ATOM      8  N   THR A   5       9.317  23.286  24.413  0.00  0.00    -0.295 N 
ATOM      9  H   THR A   5       8.879  22.509  23.878  0.00  0.00    +0.150 HD
BRANCH   8  10
ATOM     10  CA  THR A   5       8.537  24.503  24.714  0.00  0.00    +0.176 C 
BRANCH  10  11
ATOM     11  C   THR A   5       7.822  24.340  26.045  0.00  0.00    +0.243 C 
ATOM     12  N   ALA A   6       7.960  23.169  26.703  0.00  0.00    -0.298 N 
ATOM     13  H   ALA A   6       8.497  22.392  26.266  0.00  0.00    +0.150 HD
ATOM     14  O   THR A   5       7.129  25.263  26.530  0.00  0.00    -0.273 OA
BRANCH  12  15
ATOM     15  CA  ALA A   6       7.364  22.984  28.019  0.00  0.00    +0.137 C 
ATOM     16  CB  ALA A   6       7.262  21.512  28.446  0.00  0.00    +0.030 C 
BRANCH  15  17
ATOM     17  C   ALA A   6       8.328  23.675  29.013  0.00  0.00    +0.227 C 
ATOM     18  O   ALA A   6       8.003  23.946  30.153  0.00  0.00    -0.286 OA
ENDBRANCH  15  17
ENDBRANCH  12  15
ENDBRANCH  10  11
BRANCH  10  19
ATOM     19  CB  THR A   5       7.570  24.847  23.566  0.00  0.00    +0.137 C 
ATOM     20  CG2 THR A   5       8.270  25.517  22.397  0.00  0.00    +0.034 C 
BRANCH  19  21
ATOM     21  OG1 THR A   5       6.976  23.581  23.100  0.00  0.00    -0.382 OA
ATOM     22  HG1 THR A   5       6.490  23.151  23.848  0.00  0.00    +0.210 HD
ENDBRANCH  19  21
ENDBRANCH  10  19
ENDBRANCH   8  10
ENDBRANCH   5   6
BRANCH   5  23
ATOM     23  CB  ASN A   4      12.343  21.409  25.440  0.00  0.00    +0.114 C 
BRANCH  23  24
ATOM     24  CG  ASN A   4      11.830  21.184  26.817  0.00  0.00    +0.222 C 
ATOM     25  ND2 ASN A   4      12.534  20.368  27.615  0.00  0.00    -0.329 N 
ATOM     26 HD21 ASN A   4      12.199  20.167  28.579  0.00  0.00    +0.145 HD
ATOM     27 HD22 ASN A   4      13.415  19.936  27.270  0.00  0.00    +0.145 HD
ATOM     28  OD1 ASN A   4      10.768  21.692  27.261  0.00  0.00    -0.275 OA
ENDBRANCH  23  24
ENDBRANCH   5  23
ENDBRANCH   2   5
BRANCH   1  29
ATOM     29  CA  ASN A   3      11.756  21.574  20.635  0.00  0.00    +0.158 C 
BRANCH  29  31
ATOM     30  C   SER A   2      13.815  22.885  20.646  0.00  0.00    +0.243 C 
ATOM     31  N   ASN A   3      13.214  21.692  20.752  0.00  0.00    -0.297 N 
ATOM     32  H   ASN A   3      13.787  20.840  20.919  0.00  0.00    +0.150 HD
ATOM     33  O   SER A   2      13.162  23.929  20.405  0.00  0.00    -0.273 OA
BRANCH  30  34
ATOM     34  CA  SER A   2      15.337  22.978  20.801  0.00  0.00    +0.178 C 
BRANCH  34  37
ATOM     35  C   SER A   1      15.521  21.532  22.761  0.00  0.00    +0.241 C 
ATOM     36  O   SER A   1      14.751  22.250  23.407  0.00  0.00    -0.274 OA
ATOM     37  N   SER A   2      15.853  21.799  21.504  0.00  0.00    -0.295 N 
ATOM     38  H   SER A   2      16.497  21.154  21.004  0.00  0.00    +0.150 HD
BRANCH  35  39
ATOM     39  CA  SER A   1      16.065  20.259  23.356  0.00  0.00    +0.174 C 
BRANCH  39  40
ATOM     40  N   SER A   1      16.666  20.444  24.677  0.00  0.00    -0.236 NA
ATOM     41  H   SER A   1      16.213  20.048  25.525  0.00  0.00    +0.142 HD
ENDBRANCH  39  40
BRANCH  39  42
ATOM     42  CB  SER A   1      14.914  19.233  23.458  0.00  0.00    +0.163 C 
BRANCH  42  43
ATOM     43  OG  SER A   1      14.276  19.235  22.165  0.00  0.00    -0.380 OA
ATOM     44  H   SER A   1      14.934  18.972  21.473  0.00  0.00    +0.211 HD
ENDBRANCH  42  43
ENDBRANCH  39  42
ENDBRANCH  35  39
ENDBRANCH  34  37
BRANCH  34  45
ATOM     45  CB  SER A   2      15.991  23.130  19.402  0.00  0.00    +0.166 C 
BRANCH  45  46
ATOM     46  OG  SER A   2      15.819  21.955  18.616  0.00  0.00    -0.380 OA
ATOM     47  H   SER A   2      14.852  21.780  18.494  0.00  0.00    +0.211 HD
ENDBRANCH  45  46
ENDBRANCH  34  45
ENDBRANCH  30  34
ENDBRANCH  29  31
BRANCH  29  48
ATOM     48  CB  ASN A   3      11.413  20.184  20.048  0.00  0.00    +0.114 C 
BRANCH  48  49
ATOM     49  CG  ASN A   3      11.987  19.955  18.677  0.00  0.00    +0.222 C 
ATOM     50  OD1 ASN A   3      12.857  19.100  18.468  0.00  0.00    -0.275 OA
ATOM     51  ND2 ASN A   3      11.546  20.693  17.664  0.00  0.00    -0.329 N 
ATOM     52 HD21 ASN A   3      10.815  21.415  17.826  0.00  0.00    +0.145 HD
ATOM     53 HD22 ASN A   3      11.932  20.549  16.709  0.00  0.00    +0.145 HD
ENDBRANCH  48  49
ENDBRANCH  29  48
ENDBRANCH   1  29
TORSDOF 22
REMARK  Name = ../refined-set-2016/2olb/2olb_pocket.pdb
REMARK  267 active torsions:
REMARK  status: ('A' for Active; 'I' for Inactive)
REMARK    1  A    between atoms: _1  and  _3
REMARK    2  A    between atoms: _3  and  _4
REMARK    3  A    between atoms: _3  and  _6
REMARK    4  A    between atoms: _6  and  _7
REMARK    5  A    between atoms: _12  and  _14
REMARK    6  A    between atoms: _14  and  _15
REMARK    7  A    between atoms: _17  and  _19
REMARK    8  A    between atoms: _19  and  _20
REMARK    9  A    between atoms: _19  and  _22
REMARK   10  A    between atoms: _22  and  _23
REMARK   11  A    between atoms: _23  and  _24
REMARK   12  A    between atoms: _29  and  _31
REMARK   13  A    between atoms: _31  and  _32
REMARK   14  A    between atoms: _31  and  _34
REMARK   15  A    between atoms: _34  and  _35
REMARK   16  A    between atoms: _38  and  _40
REMARK   17  A    between atoms: _40  and  _41
REMARK   18  A    between atoms: _40  and  _43
REMARK   19  A    between atoms: _43  and  _44
REMARK   20  A    between atoms: _44  and  _45
REMARK   21  A    between atoms: _48  and  _50
REMARK   22  A    between atoms: _50  and  _51
REMARK   23  A    between atoms: _53  and  _55
REMARK   24  A    between atoms: _55  and  _56
REMARK   25  A    between atoms: _55  and  _58
REMARK   26  A    between atoms: _62  and  _63
REMARK   27  A    between atoms: _68  and  _70
REMARK   28  A    between atoms: _70  and  _71
REMARK   29  A    between atoms: _70  and  _73
REMARK   30  A    between atoms: _73  and  _74
REMARK   31  A    between atoms: _74  and  _75
REMARK   32  A    between atoms: _78  and  _80
REMARK   33  A    between atoms: _80  and  _81
REMARK   34  A    between atoms: _80  and  _83
REMARK   35  A    between atoms: _83  and  _84
REMARK   36  A    between atoms: _86  and  _88
REMARK   37  A    between atoms: _88  and  _89
REMARK   38  A    between atoms: _88  and  _91
REMARK   39  A    between atoms: _91  and  _92
REMARK   40  A    between atoms: _97  and  _99
REMARK   41  A    between atoms: _99  and  _100
REMARK   42  A    between atoms: _99  and  _102
REMARK   43  A    between atoms: _102  and  _103
REMARK   44  A    between atoms: _103  and  _104
REMARK   45  A    between atoms: _104  and  _105
REMARK   46  A    between atoms: _115  and  _116
REMARK   47  A    between atoms: _121  and  _123
REMARK   48  A    between atoms: _123  and  _124
REMARK   49  A    between atoms: _123  and  _126
REMARK   50  A    between atoms: _126  and  _127
REMARK   51  A    between atoms: _132  and  _133
REMARK   52  A    between atoms: _135  and  _137
REMARK   53  A    between atoms: _137  and  _138
REMARK   54  A    between atoms: _137  and  _140
REMARK   55  A    between atoms: _140  and  _141
REMARK   56  A    between atoms: _146  and  _147
REMARK   57  A    between atoms: _149  and  _151
REMARK   58  A    between atoms: _151  and  _152
REMARK   59  A    between atoms: _151  and  _154
REMARK   60  A    between atoms: _157  and  _159
REMARK   61  A    between atoms: _159  and  _160
REMARK   62  A    between atoms: _159  and  _162
REMARK   63  A    between atoms: _162  and  _163
REMARK   64  A    between atoms: _169  and  _170
REMARK   65  A    between atoms: _175  and  _177
REMARK   66  A    between atoms: _177  and  _178
REMARK   67  A    between atoms: _177  and  _180
REMARK   68  A    between atoms: _180  and  _181
REMARK   69  A    between atoms: _183  and  _185
REMARK   70  A    between atoms: _185  and  _186
REMARK   71  A    between atoms: _185  and  _188
REMARK   72  A    between atoms: _188  and  _189
REMARK   73  A    between atoms: _189  and  _190
REMARK   74  A    between atoms: _193  and  _195
REMARK   75  A    between atoms: _195  and  _196
REMARK   76  A    between atoms: _195  and  _198
REMARK   77  A    between atoms: _198  and  _199
REMARK   78  A    between atoms: _204  and  _205
REMARK   79  A    between atoms: _207  and  _209
REMARK   80  A    between atoms: _209  and  _210
REMARK   81  A    between atoms: _209  and  _212
REMARK   82  A    between atoms: _212  and  _213
REMARK   83  A    between atoms: _218  and  _220
REMARK   84  A    between atoms: _220  and  _221
REMARK   85  A    between atoms: _220  and  _223
REMARK   86  A    between atoms: _223  and  _224
REMARK   87  A    between atoms: _229  and  _231
REMARK   88  A    between atoms: _231  and  _232
REMARK   89  A    between atoms: _231  and  _234
REMARK   90  A    between atoms: _234  and  _235
REMARK   91  A    between atoms: _235  and  _236
REMARK   92  A    between atoms: _238  and  _240
REMARK   93  A    between atoms: _240  and  _241
REMARK   94  A    between atoms: _240  and  _243
REMARK   95  A    between atoms: _243  and  _244
REMARK   96  A    between atoms: _249  and  _250
REMARK   97  A    between atoms: _252  and  _254
REMARK   98  A    between atoms: _254  and  _255
REMARK   99  A    between atoms: _254  and  _257
REMARK  100  A    between atoms: _257  and  _258
REMARK  101  A    between atoms: _261  and  _263
REMARK  102  A    between atoms: _263  and  _264
REMARK  103  A    between atoms: _263  and  _266
REMARK  104  A    between atoms: _266  and  _267
REMARK  105  A    between atoms: _267  and  _484
REMARK  106  A    between atoms: _268  and  _270
REMARK  107  A    between atoms: _270  and  _271
REMARK  108  A    between atoms: _270  and  _273
REMARK  109  A    between atoms: _273  and  _274
REMARK  110  A    between atoms: _277  and  _279
REMARK  111  A    between atoms: _279  and  _280
REMARK  112  A    between atoms: _279  and  _282
REMARK  113  A    between atoms: _282  and  _283
REMARK  114  A    between atoms: _288  and  _289
REMARK  115  A    between atoms: _291  and  _293
REMARK  116  A    between atoms: _293  and  _294
REMARK  117  A    between atoms: _293  and  _296
REMARK  118  A    between atoms: _296  and  _297
REMARK  119  A    between atoms: _302  and  _303
REMARK  120  A    between atoms: _305  and  _307
REMARK  121  A    between atoms: _307  and  _308
REMARK  122  A    between atoms: _307  and  _310
REMARK  123  A    between atoms: _310  and  _311
REMARK  124  A    between atoms: _311  and  _312
REMARK  125  A    between atoms: _315  and  _317
REMARK  126  A    between atoms: _317  and  _318
REMARK  127  A    between atoms: _317  and  _320
REMARK  128  A    between atoms: _320  and  _321
REMARK  129  A    between atoms: _326  and  _327
REMARK  130  A    between atoms: _329  and  _331
REMARK  131  A    between atoms: _331  and  _332
REMARK  132  A    between atoms: _331  and  _334
REMARK  133  A    between atoms: _334  and  _335
REMARK  134  A    between atoms: _340  and  _342
REMARK  135  A    between atoms: _342  and  _343
REMARK  136  A    between atoms: _342  and  _345
REMARK  137  A    between atoms: _345  and  _346
REMARK  138  A    between atoms: _349  and  _351
REMARK  139  A    between atoms: _351  and  _352
REMARK  140  A    between atoms: _351  and  _354
REMARK  141  A    between atoms: _354  and  _355
REMARK  142  A    between atoms: _360  and  _362
REMARK  143  A    between atoms: _362  and  _363
REMARK  144  A    between atoms: _362  and  _365
REMARK  145  A    between atoms: _365  and  _366
REMARK  146  A    between atoms: _376  and  _378
REMARK  147  A    between atoms: _378  and  _379
REMARK  148  A    between atoms: _378  and  _381
REMARK  149  A    between atoms: _381  and  _382
REMARK  150  A    between atoms: _388  and  _390
REMARK  151  A    between atoms: _390  and  _391
REMARK  152  A    between atoms: _390  and  _393
REMARK  153  A    between atoms: _393  and  _394
REMARK  154  A    between atoms: _397  and  _399
REMARK  155  A    between atoms: _399  and  _400
REMARK  156  A    between atoms: _399  and  _402
REMARK  157  A    between atoms: _402  and  _403
REMARK  158  A    between atoms: _406  and  _408
REMARK  159  A    between atoms: _408  and  _409
REMARK  160  A    between atoms: _408  and  _411
REMARK  161  A    between atoms: _411  and  _412
REMARK  162  A    between atoms: _412  and  _413
REMARK  163  A    between atoms: _413  and  _414
REMARK  164  A    between atoms: _423  and  _425
REMARK  165  A    between atoms: _425  and  _426
REMARK  166  A    between atoms: _425  and  _428
REMARK  167  A    between atoms: _428  and  _429
REMARK  168  A    between atoms: _434  and  _436
REMARK  169  A    between atoms: _436  and  _437
REMARK  170  A    between atoms: _436  and  _439
REMARK  171  A    between atoms: _439  and  _440
REMARK  172  A    between atoms: _440  and  _441
REMARK  173  A    between atoms: _441  and  _442
REMARK  174  A    between atoms: _451  and  _453
REMARK  175  A    between atoms: _453  and  _454
REMARK  176  A    between atoms: _457  and  _459
REMARK  177  A    between atoms: _459  and  _460
REMARK  178  A    between atoms: _462  and  _464
REMARK  179  A    between atoms: _464  and  _465
REMARK  180  A    between atoms: _464  and  _467
REMARK  181  A    between atoms: _467  and  _468
REMARK  182  A    between atoms: _478  and  _480
REMARK  183  A    between atoms: _480  and  _481
REMARK  184  A    between atoms: _480  and  _483
REMARK  185  A    between atoms: _483  and  _484
REMARK  186  A    between atoms: _485  and  _487
REMARK  187  A    between atoms: _487  and  _488
REMARK  188  A    between atoms: _491  and  _493
REMARK  189  A    between atoms: _493  and  _494
REMARK  190  A    between atoms: _493  and  _496
REMARK  191  A    between atoms: _496  and  _497
REMARK  192  A    between atoms: _500  and  _502
REMARK  193  A    between atoms: _502  and  _503
REMARK  194  A    between atoms: _502  and  _505
REMARK  195  A    between atoms: _505  and  _506
REMARK  196  A    between atoms: _511  and  _512
REMARK  197  A    between atoms: _514  and  _516
REMARK  198  A    between atoms: _516  and  _517
REMARK  199  A    between atoms: _516  and  _519
REMARK  200  A    between atoms: _519  and  _520
REMARK  201  A    between atoms: _522  and  _524
REMARK  202  A    between atoms: _524  and  _525
REMARK  203  A    between atoms: _524  and  _527
REMARK  204  A    between atoms: _527  and  _528
REMARK  205  A    between atoms: _534  and  _536
REMARK  206  A    between atoms: _536  and  _537
REMARK  207  A    between atoms: _536  and  _539
REMARK  208  A    between atoms: _539  and  _540
REMARK  209  A    between atoms: _543  and  _545
REMARK  210  A    between atoms: _545  and  _546
REMARK  211  A    between atoms: _545  and  _548
REMARK  212  A    between atoms: _548  and  _549
REMARK  213  A    between atoms: _551  and  _553
REMARK  214  A    between atoms: _553  and  _554
REMARK  215  A    between atoms: _553  and  _556
REMARK  216  A    between atoms: _556  and  _557
REMARK  217  A    between atoms: _559  and  _561
REMARK  218  A    between atoms: _561  and  _562
REMARK  219  A    between atoms: _561  and  _564
REMARK  220  A    between atoms: _564  and  _565
REMARK  221  A    between atoms: _570  and  _572
REMARK  222  A    between atoms: _572  and  _573
REMARK  223  A    between atoms: _572  and  _575
REMARK  224  A    between atoms: _575  and  _576
REMARK  225  A    between atoms: _581  and  _583
REMARK  226  A    between atoms: _583  and  _584
REMARK  227  A    between atoms: _583  and  _586
REMARK  228  A    between atoms: _586  and  _587
REMARK  229  A    between atoms: _590  and  _592
REMARK  230  A    between atoms: _592  and  _593
REMARK  231  A    between atoms: _596  and  _598
REMARK  232  A    between atoms: _598  and  _599
REMARK  233  A    between atoms: _598  and  _601
REMARK  234  A    between atoms: _601  and  _602
REMARK  235  A    between atoms: _607  and  _608
REMARK  236  A    between atoms: _610  and  _612
REMARK  237  A    between atoms: _612  and  _613
REMARK  238  A    between atoms: _612  and  _615
REMARK  239  A    between atoms: _615  and  _616
REMARK  240  A    between atoms: _621  and  _622
REMARK  241  A    between atoms: _624  and  _626
REMARK  242  A    between atoms: _626  and  _627
REMARK  243  A    between atoms: _626  and  _629
REMARK  244  A    between atoms: _632  and  _634
REMARK  245  A    between atoms: _634  and  _635
REMARK  246  A    between atoms: _634  and  _637
REMARK  247  A    between atoms: _637  and  _638
REMARK  248  A    between atoms: _643  and  _645
REMARK  249  A    between atoms: _645  and  _646
REMARK  250  A    between atoms: _649  and  _651
REMARK  251  A    between atoms: _651  and  _652
REMARK  252  A    between atoms: _651  and  _654
REMARK  253  A    between atoms: _654  and  _655
REMARK  254  A    between atoms: _655  and  _656
REMARK  255  A    between atoms: _656  and  _657
REMARK  256  A    between atoms: _666  and  _668
REMARK  257  A    between atoms: _668  and  _669
REMARK  258  A    between atoms: _668  and  _671
REMARK  259  A    between atoms: _671  and  _672
REMARK  260  A    between atoms: _675  and  _677
REMARK  261  A    between atoms: _677  and  _678
REMARK  262  A    between atoms: _677  and  _680
REMARK  263  A    between atoms: _680  and  _681
REMARK  264  A    between atoms: _684  and  _686
REMARK  265  A    between atoms: _686  and  _687
REMARK  266  A    between atoms: _686  and  _689
REMARK  267  A    between atoms: _689  and  _690
REMARK                            x       y       z     vdW  Elec       q    Type
REMARK                         _______ _______ _______ _____ _____    ______ ____
ROOT
ATOM      1  CG  TYR A   1      -7.365  13.626  22.629  0.00  0.00    -0.020 A 
ATOM      2  CD2 TYR A   1      -8.140  14.736  23.017  0.00  0.00    -0.001 A 
ATOM      3  CE2 TYR A   1      -8.366  15.791  22.155  0.00  0.00    +0.036 A 
ATOM      4  CZ  TYR A   1      -7.843  15.768  20.885  0.00  0.00    +0.134 A 
ATOM      5  CE1 TYR A   1      -7.084  14.695  20.456  0.00  0.00    +0.036 A 
ATOM      6  CD1 TYR A   1      -6.856  13.638  21.346  0.00  0.00    -0.001 A 
ENDROOT
BRANCH   4   7
ATOM      7  OH  TYR A   1      -8.120  16.859  20.058  0.00  0.00    -0.506 OA
ATOM      8  HH  TYR A   1      -7.689  16.722  19.177  0.00  0.00    +0.292 HD
ENDBRANCH   4   7
BRANCH   1   9
ATOM      9  CB  TYR A   1      -7.168  12.516  23.608  0.00  0.00    +0.051 C 
BRANCH   9  10
ATOM     10  CA  TYR A   1      -5.799  12.371  24.300  0.00  0.00    +0.137 C 
BRANCH  10  11
ATOM     11  N   TYR A   1      -5.437  13.522  25.070  0.00  0.00    -0.239 NA
ATOM     12  H   TYR A   1      -4.808  14.238  24.654  0.00  0.00    +0.142 HD
ENDBRANCH  10  11
BRANCH  10  13
ATOM     13  C   TYR A   1      -4.754  12.068  23.200  0.00  0.00    +0.224 C 
ATOM     14  O   TYR A   1      -3.971  12.948  22.862  0.00  0.00    -0.287 OA
ENDBRANCH  10  13
ENDBRANCH   9  10
ENDBRANCH   1   9
TORSDOF 5
REMARK  Name = ../refined-set-2016/2olb/2olb_pocket.pdb
REMARK  267 active torsions:
REMARK  status: ('A' for Active; 'I' for Inactive)
REMARK    1  A    between atoms: _1  and  _3
REMARK    2  A    between atoms: _3  and  _4
REMARK    3  A    between atoms: _3  and  _6
REMARK    4  A    between atoms: _6  and  _7
REMARK    5  A    between atoms: _12  and  _14
REMARK    6  A    between atoms: _14  and  _15
REMARK    7  A    between atoms: _17  and  _19
REMARK    8  A    between atoms: _19  and  _20
REMARK    9  A    between atoms: _19  and  _22
REMARK   10  A    between atoms: _22  and  _23
REMARK   11  A    between atoms: _23  and  _24
REMARK   12  A    between atoms: _29  and  _31
REMARK   13  A    between atoms: _31  and  _32
REMARK   14  A    between atoms: _31  and  _34
REMARK   15  A    between atoms: _34  and  _35
REMARK   16  A    between atoms: _38  and  _40
REMARK   17  A    between atoms: _40  and  _41
REMARK   18  A    between atoms: _40  and  _43
REMARK   19  A    between atoms: _43  and  _44
REMARK   20  A    between atoms: _44  and  _45
REMARK   21  A    between atoms: _48  and  _50
REMARK   22  A    between atoms: _50  and  _51
REMARK   23  A    between atoms: _53  and  _55
REMARK   24  A    between atoms: _55  and  _56
REMARK   25  A    between atoms: _55  and  _58
REMARK   26  A    between atoms: _62  and  _63
REMARK   27  A    between atoms: _68  and  _70
REMARK   28  A    between atoms: _70  and  _71
REMARK   29  A    between atoms: _70  and  _73
REMARK   30  A    between atoms: _73  and  _74
REMARK   31  A    between atoms: _74  and  _75
REMARK   32  A    between atoms: _78  and  _80
REMARK   33  A    between atoms: _80  and  _81
REMARK   34  A    between atoms: _80  and  _83
REMARK   35  A    between atoms: _83  and  _84
REMARK   36  A    between atoms: _86  and  _88
REMARK   37  A    between atoms: _88  and  _89
REMARK   38  A    between atoms: _88  and  _91
REMARK   39  A    between atoms: _91  and  _92
REMARK   40  A    between atoms: _97  and  _99
REMARK   41  A    between atoms: _99  and  _100
REMARK   42  A    between atoms: _99  and  _102
REMARK   43  A    between atoms: _102  and  _103
REMARK   44  A    between atoms: _103  and  _104
REMARK   45  A    between atoms: _104  and  _105
REMARK   46  A    between atoms: _115  and  _116
REMARK   47  A    between atoms: _121  and  _123
REMARK   48  A    between atoms: _123  and  _124
REMARK   49  A    between atoms: _123  and  _126
REMARK   50  A    between atoms: _126  and  _127
REMARK   51  A    between atoms: _132  and  _133
REMARK   52  A    between atoms: _135  and  _137
REMARK   53  A    between atoms: _137  and  _138
REMARK   54  A    between atoms: _137  and  _140
REMARK   55  A    between atoms: _140  and  _141
REMARK   56  A    between atoms: _146  and  _147
REMARK   57  A    between atoms: _149  and  _151
REMARK   58  A    between atoms: _151  and  _152
REMARK   59  A    between atoms: _151  and  _154
REMARK   60  A    between atoms: _157  and  _159
REMARK   61  A    between atoms: _159  and  _160
REMARK   62  A    between atoms: _159  and  _162
REMARK   63  A    between atoms: _162  and  _163
REMARK   64  A    between atoms: _169  and  _170
REMARK   65  A    between atoms: _175  and  _177
REMARK   66  A    between atoms: _177  and  _178
REMARK   67  A    between atoms: _177  and  _180
REMARK   68  A    between atoms: _180  and  _181
REMARK   69  A    between atoms: _183  and  _185
REMARK   70  A    between atoms: _185  and  _186
REMARK   71  A    between atoms: _185  and  _188
REMARK   72  A    between atoms: _188  and  _189
REMARK   73  A    between atoms: _189  and  _190
REMARK   74  A    between atoms: _193  and  _195
REMARK   75  A    between atoms: _195  and  _196
REMARK   76  A    between atoms: _195  and  _198
REMARK   77  A    between atoms: _198  and  _199
REMARK   78  A    between atoms: _204  and  _205
REMARK   79  A    between atoms: _207  and  _209
REMARK   80  A    between atoms: _209  and  _210
REMARK   81  A    between atoms: _209  and  _212
REMARK   82  A    between atoms: _212  and  _213
REMARK   83  A    between atoms: _218  and  _220
REMARK   84  A    between atoms: _220  and  _221
REMARK   85  A    between atoms: _220  and  _223
REMARK   86  A    between atoms: _223  and  _224
REMARK   87  A    between atoms: _229  and  _231
REMARK   88  A    between atoms: _231  and  _232
REMARK   89  A    between atoms: _231  and  _234
REMARK   90  A    between atoms: _234  and  _235
REMARK   91  A    between atoms: _235  and  _236
REMARK   92  A    between atoms: _238  and  _240
REMARK   93  A    between atoms: _240  and  _241
REMARK   94  A    between atoms: _240  and  _243
REMARK   95  A    between atoms: _243  and  _244
REMARK   96  A    between atoms: _249  and  _250
REMARK   97  A    between atoms: _252  and  _254
REMARK   98  A    between atoms: _254  and  _255
REMARK   99  A    between atoms: _254  and  _257
REMARK  100  A    between atoms: _257  and  _258
REMARK  101  A    between atoms: _261  and  _263
REMARK  102  A    between atoms: _263  and  _264
REMARK  103  A    between atoms: _263  and  _266
REMARK  104  A    between atoms: _266  and  _267
REMARK  105  A    between atoms: _267  and  _484
REMARK  106  A    between atoms: _268  and  _270
REMARK  107  A    between atoms: _270  and  _271
REMARK  108  A    between atoms: _270  and  _273
REMARK  109  A    between atoms: _273  and  _274
REMARK  110  A    between atoms: _277  and  _279
REMARK  111  A    between atoms: _279  and  _280
REMARK  112  A    between atoms: _279  and  _282
REMARK  113  A    between atoms: _282  and  _283
REMARK  114  A    between atoms: _288  and  _289
REMARK  115  A    between atoms: _291  and  _293
REMARK  116  A    between atoms: _293  and  _294
REMARK  117  A    between atoms: _293  and  _296
REMARK  118  A    between atoms: _296  and  _297
REMARK  119  A    between atoms: _302  and  _303
REMARK  120  A    between atoms: _305  and  _307
REMARK  121  A    between atoms: _307  and  _308
REMARK  122  A    between atoms: _307  and  _310
REMARK  123  A    between atoms: _310  and  _311
REMARK  124  A    between atoms: _311  and  _312
REMARK  125  A    between atoms: _315  and  _317
REMARK  126  A    between atoms: _317  and  _318
REMARK  127  A    between atoms: _317  and  _320
REMARK  128  A    between atoms: _320  and  _321
REMARK  129  A    between atoms: _326  and  _327
REMARK  130  A    between atoms: _329  and  _331
REMARK  131  A    between atoms: _331  and  _332
REMARK  132  A    between atoms: _331  and  _334
REMARK  133  A    between atoms: _334  and  _335
REMARK  134  A    between atoms: _340  and  _342
REMARK  135  A    between atoms: _342  and  _343
REMARK  136  A    between atoms: _342  and  _345
REMARK  137  A    between atoms: _345  and  _346
REMARK  138  A    between atoms: _349  and  _351
REMARK  139  A    between atoms: _351  and  _352
REMARK  140  A    between atoms: _351  and  _354
REMARK  141  A    between atoms: _354  and  _355
REMARK  142  A    between atoms: _360  and  _362
REMARK  143  A    between atoms: _362  and  _363
REMARK  144  A    between atoms: _362  and  _365
REMARK  145  A    between atoms: _365  and  _366
REMARK  146  A    between atoms: _376  and  _378
REMARK  147  A    between atoms: _378  and  _379
REMARK  148  A    between atoms: _378  and  _381
REMARK  149  A    between atoms: _381  and  _382
REMARK  150  A    between atoms: _388  and  _390
REMARK  151  A    between atoms: _390  and  _391
REMARK  152  A    between atoms: _390  and  _393
REMARK  153  A    between atoms: _393  and  _394
REMARK  154  A    between atoms: _397  and  _399
REMARK  155  A    between atoms: _399  and  _400
REMARK  156  A    between atoms: _399  and  _402
REMARK  157  A    between atoms: _402  and  _403
REMARK  158  A    between atoms: _406  and  _408
REMARK  159  A    between atoms: _408  and  _409
REMARK  160  A    between atoms: _408  and  _411
REMARK  161  A    between atoms: _411  and  _412
REMARK  162  A    between atoms: _412  and  _413
REMARK  163  A    between atoms: _413  and  _414
REMARK  164  A    between atoms: _423  and  _425
REMARK  165  A    between atoms: _425  and  _426
REMARK  166  A    between atoms: _425  and  _428
REMARK  167  A    between atoms: _428  and  _429
REMARK  168  A    between atoms: _434  and  _436
REMARK  169  A    between atoms: _436  and  _437
REMARK  170  A    between atoms: _436  and  _439
REMARK  171  A    between atoms: _439  and  _440
REMARK  172  A    between atoms: _440  and  _441
REMARK  173  A    between atoms: _441  and  _442
REMARK  174  A    between atoms: _451  and  _453
REMARK  175  A    between atoms: _453  and  _454
REMARK  176  A    between atoms: _457  and  _459
REMARK  177  A    between atoms: _459  and  _460
REMARK  178  A    between atoms: _462  and  _464
REMARK  179  A    between atoms: _464  and  _465
REMARK  180  A    between atoms: _464  and  _467
REMARK  181  A    between atoms: _467  and  _468
REMARK  182  A    between atoms: _478  and  _480
REMARK  183  A    between atoms: _480  and  _481
REMARK  184  A    between atoms: _480  and  _483
REMARK  185  A    between atoms: _483  and  _484
REMARK  186  A    between atoms: _485  and  _487
REMARK  187  A    between atoms: _487  and  _488
REMARK  188  A    between atoms: _491  and  _493
REMARK  189  A    between atoms: _493  and  _494
REMARK  190  A    between atoms: _493  and  _496
REMARK  191  A    between atoms: _496  and  _497
REMARK  192  A    between atoms: _500  and  _502
REMARK  193  A    between atoms: _502  and  _503
REMARK  194  A    between atoms: _502  and  _505
REMARK  195  A    between atoms: _505  and  _506
REMARK  196  A    between atoms: _511  and  _512
REMARK  197  A    between atoms: _514  and  _516
REMARK  198  A    between atoms: _516  and  _517
REMARK  199  A    between atoms: _516  and  _519
REMARK  200  A    between atoms: _519  and  _520
REMARK  201  A    between atoms: _522  and  _524
REMARK  202  A    between atoms: _524  and  _525
REMARK  203  A    between atoms: _524  and  _527
REMARK  204  A    between atoms: _527  and  _528
REMARK  205  A    between atoms: _534  and  _536
REMARK  206  A    between atoms: _536  and  _537
REMARK  207  A    between atoms: _536  and  _539
REMARK  208  A    between atoms: _539  and  _540
REMARK  209  A    between atoms: _543  and  _545
REMARK  210  A    between atoms: _545  and  _546
REMARK  211  A    between atoms: _545  and  _548
REMARK  212  A    between atoms: _548  and  _549
REMARK  213  A    between atoms: _551  and  _553
REMARK  214  A    between atoms: _553  and  _554
REMARK  215  A    between atoms: _553  and  _556
REMARK  216  A    between atoms: _556  and  _557
REMARK  217  A    between atoms: _559  and  _561
REMARK  218  A    between atoms: _561  and  _562
REMARK  219  A    between atoms: _561  and  _564
REMARK  220  A    between atoms: _564  and  _565
REMARK  221  A    between atoms: _570  and  _572
REMARK  222  A    between atoms: _572  and  _573
REMARK  223  A    between atoms: _572  and  _575
REMARK  224  A    between atoms: _575  and  _576
REMARK  225  A    between atoms: _581  and  _583
REMARK  226  A    between atoms: _583  and  _584
REMARK  227  A    between atoms: _583  and  _586
REMARK  228  A    between atoms: _586  and  _587
REMARK  229  A    between atoms: _590  and  _592
REMARK  230  A    between atoms: _592  and  _593
REMARK  231  A    between atoms: _596  and  _598
REMARK  232  A    between atoms: _598  and  _599
REMARK  233  A    between atoms: _598  and  _601
REMARK  234  A    between atoms: _601  and  _602
REMARK  235  A    between atoms: _607  and  _608
REMARK  236  A    between atoms: _610  and  _612
REMARK  237  A    between atoms: _612  and  _613
REMARK  238  A    between atoms: _612  and  _615
REMARK  239  A    between atoms: _615  and  _616
REMARK  240  A    between atoms: _621  and  _622
REMARK  241  A    between atoms: _624  and  _626
REMARK  242  A    between atoms: _626  and  _627
REMARK  243  A    between atoms: _626  and  _629
REMARK  244  A    between atoms: _632  and  _634
REMARK  245  A    between atoms: _634  and  _635
REMARK  246  A    between atoms: _634  and  _637
REMARK  247  A    between atoms: _637  and  _638
REMARK  248  A    between atoms: _643  and  _645
REMARK  249  A    between atoms: _645  and  _646
REMARK  250  A    between atoms: _649  and  _651
REMARK  251  A    between atoms: _651  and  _652
REMARK  252  A    between atoms: _651  and  _654
REMARK  253  A    between atoms: _654  and  _655
REMARK  254  A    between atoms: _655  and  _656
REMARK  255  A    between atoms: _656  and  _657
REMARK  256  A    between atoms: _666  and  _668
REMARK  257  A    between atoms: _668  and  _669
REMARK  258  A    between atoms: _668  and  _671
REMARK  259  A    between atoms: _671  and  _672
REMARK  260  A    between atoms: _675  and  _677
REMARK  261  A    between atoms: _677  and  _678
REMARK  262  A    between atoms: _677  and  _680
REMARK  263  A    between atoms: _680  and  _681
REMARK  264  A    between atoms: _684  and  _686
REMARK  265  A    between atoms: _686  and  _687
REMARK  266  A    between atoms: _686  and  _689
REMARK  267  A    between atoms: _689  and  _690
REMARK                            x       y       z     vdW  Elec       q    Type
REMARK                         _______ _______ _______ _____ _____    ______ ____
ROOT
ATOM      1  CA  ASN A   3      -6.267  11.306  12.034  0.00  0.00    +0.158 C 
ENDROOT
BRANCH   1   4
ATOM      2  C   VAL A   2      -6.752  10.963  14.356  0.00  0.00    +0.241 C 
ATOM      3  O   VAL A   2      -6.869  12.161  14.654  0.00  0.00    -0.273 OA
ATOM      4  N   ASN A   3      -6.457  10.481  13.206  0.00  0.00    -0.297 N 
ATOM      5  H   ASN A   3      -6.349   9.451  13.111  0.00  0.00    +0.150 HD
BRANCH   2   6
ATOM      6  CA  VAL A   2      -6.983   9.909  15.511  0.00  0.00    +0.148 C 
BRANCH   6   9
ATOM      7  C   TYR A   1      -5.492  10.473  17.360  0.00  0.00    +0.239 C 
ATOM      8  O   TYR A   1      -4.796   9.486  17.252  0.00  0.00    -0.274 OA
ATOM      9  N   VAL A   2      -6.567  10.725  16.606  0.00  0.00    -0.297 N 
ATOM     10  H   VAL A   2      -7.135  11.567  16.831  0.00  0.00    +0.150 HD
BRANCH   7  11
ATOM     11  CA  TYR A   1      -5.204  11.641  18.287  0.00  0.00    +0.149 C 
BRANCH  11  12
ATOM     12  N   TYR A   1      -4.395  11.343  19.438  0.00  0.00    -0.238 NA
ATOM     13  H   TYR A   1      -3.419  11.699  19.485  0.00  0.00    +0.142 HD
ENDBRANCH  11  12
BRANCH  11  14
ATOM     14  CB  TYR A   1      -4.385  12.517  17.273  0.00  0.00    +0.053 C 
BRANCH  14  15
ATOM     15  CG  TYR A   1      -4.090  13.944  17.549  0.00  0.00    -0.020 A 
ATOM     16  CD2 TYR A   1      -3.435  14.407  18.675  0.00  0.00    -0.001 A 
ATOM     17  CE2 TYR A   1      -3.159  15.754  18.850  0.00  0.00    +0.036 A 
ATOM     18  CZ  TYR A   1      -3.518  16.654  17.899  0.00  0.00    +0.134 A 
ATOM     19  CE1 TYR A   1      -4.163  16.245  16.764  0.00  0.00    +0.036 A 
ATOM     20  CD1 TYR A   1      -4.445  14.904  16.561  0.00  0.00    -0.001 A 
BRANCH  18  21
ATOM     21  OH  TYR A   1      -3.254  18.015  18.067  0.00  0.00    -0.506 OA
ATOM     22  HH  TYR A   1      -2.682  18.333  17.324  0.00  0.00    +0.292 HD
ENDBRANCH  18  21
ENDBRANCH  14  15
ENDBRANCH  11  14
ENDBRANCH   7  11
ENDBRANCH   6   9
BRANCH   6  23
ATOM     23  CB  VAL A   2      -8.419   9.417  15.293  0.00  0.00    +0.027 C 
ATOM     24  CG2 VAL A   2      -8.622   8.182  16.177  0.00  0.00    +0.002 C 
ATOM     25  CG1 VAL A   2      -9.464  10.482  15.516  0.00  0.00    +0.002 C 
ENDBRANCH   6  23
ENDBRANCH   2   6
ENDBRANCH   1   4
BRANCH   1  26
ATOM     26  C   ASN A   3      -7.588  11.312  11.224  0.00  0.00    +0.241 C 
ATOM     27  N   ALA A   4      -8.389  12.335  11.478  0.00  0.00    -0.297 N 
ATOM     28  H   ALA A   4      -8.079  13.049  12.168  0.00  0.00    +0.150 HD
ATOM     29  O   ASN A   3      -7.794  10.421  10.406  0.00  0.00    -0.273 OA
BRANCH  27  30
ATOM     30  CA  ALA A   4      -9.691  12.507  10.833  0.00  0.00    +0.149 C 
ATOM     31  CB  ALA A   4     -10.726  12.734  11.948  0.00  0.00    +0.031 C 
BRANCH  30  32
ATOM     32  C   ALA A   4      -9.656  13.678   9.855  0.00  0.00    +0.241 C 
ATOM     33  O   ALA A   4      -9.212  14.789  10.176  0.00  0.00    -0.273 OA
ATOM     34  N   ARG A   5     -10.111  13.433   8.644  0.00  0.00    -0.298 N 
ATOM     35  H   ARG A   5     -10.454  12.475   8.429  0.00  0.00    +0.150 HD
BRANCH  34  36
ATOM     36  CA  ARG A   5     -10.156  14.432   7.599  0.00  0.00    +0.137 C 
BRANCH  36  37
ATOM     37  C   ARG A   5     -11.097  13.957   6.494  0.00  0.00    +0.227 C 
ATOM     38  O   ARG A   5     -11.499  12.781   6.489  0.00  0.00    -0.286 OA
ENDBRANCH  36  37
BRANCH  36  39
ATOM     39  CB  ARG A   5      -8.765  14.626   6.981  0.00  0.00    +0.031 C 
BRANCH  39  40
ATOM     40  CG  ARG A   5      -8.186  13.256   6.594  0.00  0.00    +0.045 C 
BRANCH  40  41
ATOM     41  CD  ARG A   5      -7.070  13.372   5.641  0.00  0.00    +0.174 C 
BRANCH  41  42
ATOM     42  NE  ARG A   5      -6.292  14.592   5.515  0.00  0.00    -0.265 N 
ATOM     43  CZ  ARG A   5      -5.010  14.694   5.895  0.00  0.00    +0.342 C 
ATOM     44  NH2 ARG A   5      -4.453  13.639   6.426  0.00  0.00    -0.292 N 
ATOM     45 HH21 ARG A   5      -3.460  13.675   6.735  0.00  0.00    +0.255 HD
ATOM     46 HH22 ARG A   5      -5.002  12.763   6.540  0.00  0.00    +0.255 HD
ATOM     47  NH1 ARG A   5      -4.379  15.839   5.726  0.00  0.00    -0.292 N 
ATOM     48 HH11 ARG A   5      -3.385  15.933   6.016  0.00  0.00    +0.255 HD
ATOM     49 HH12 ARG A   5      -4.876  16.649   5.303  0.00  0.00    +0.255 HD
ATOM     50  HE  ARG A   5      -6.754  15.431   5.109  0.00  0.00    +0.259 HD
ENDBRANCH  41  42
ENDBRANCH  40  41
ENDBRANCH  39  40
ENDBRANCH  36  39
ENDBRANCH  34  36
ENDBRANCH  30  32
ENDBRANCH  27  30
ENDBRANCH   1  26
BRANCH   1  51
ATOM     51  CB  ASN A   3      -5.186  10.732  11.155  0.00  0.00    +0.114 C 
BRANCH  51  52
ATOM     52  CG  ASN A   3      -4.771  11.756  10.100  0.00  0.00    +0.222 C 
ATOM     53  OD1 ASN A   3      -5.355  12.836  10.028  0.00  0.00    -0.275 OA
ATOM     54  ND2 ASN A   3      -3.797  11.414   9.323  0.00  0.00    -0.329 N 
ATOM     55 HD21 ASN A   3      -3.344  10.485   9.435  0.00  0.00    +0.145 HD
ATOM     56 HD22 ASN A   3      -3.466  12.068   8.585  0.00  0.00    +0.145 HD
ENDBRANCH  51  52
ENDBRANCH   1  51
TORSDOF 20
REMARK  Name = ../refined-set-2016/2olb/2olb_pocket.pdb
REMARK  267 active torsions:
REMARK  status: ('A' for Active; 'I' for Inactive)
REMARK    1  A    between atoms: _1  and  _3
REMARK    2  A    between atoms: _3  and  _4
REMARK    3  A    between atoms: _3  and  _6
REMARK    4  A    between atoms: _6  and  _7
REMARK    5  A    between atoms: _12  and  _14
REMARK    6  A    between atoms: _14  and  _15
REMARK    7  A    between atoms: _17  and  _19
REMARK    8  A    between atoms: _19  and  _20
REMARK    9  A    between atoms: _19  and  _22
REMARK   10  A    between atoms: _22  and  _23
REMARK   11  A    between atoms: _23  and  _24
REMARK   12  A    between atoms: _29  and  _31
REMARK   13  A    between atoms: _31  and  _32
REMARK   14  A    between atoms: _31  and  _34
REMARK   15  A    between atoms: _34  and  _35
REMARK   16  A    between atoms: _38  and  _40
REMARK   17  A    between atoms: _40  and  _41
REMARK   18  A    between atoms: _40  and  _43
REMARK   19  A    between atoms: _43  and  _44
REMARK   20  A    between atoms: _44  and  _45
REMARK   21  A    between atoms: _48  and  _50
REMARK   22  A    between atoms: _50  and  _51
REMARK   23  A    between atoms: _53  and  _55
REMARK   24  A    between atoms: _55  and  _56
REMARK   25  A    between atoms: _55  and  _58
REMARK   26  A    between atoms: _62  and  _63
REMARK   27  A    between atoms: _68  and  _70
REMARK   28  A    between atoms: _70  and  _71
REMARK   29  A    between atoms: _70  and  _73
REMARK   30  A    between atoms: _73  and  _74
REMARK   31  A    between atoms: _74  and  _75
REMARK   32  A    between atoms: _78  and  _80
REMARK   33  A    between atoms: _80  and  _81
REMARK   34  A    between atoms: _80  and  _83
REMARK   35  A    between atoms: _83  and  _84
REMARK   36  A    between atoms: _86  and  _88
REMARK   37  A    between atoms: _88  and  _89
REMARK   38  A    between atoms: _88  and  _91
REMARK   39  A    between atoms: _91  and  _92
REMARK   40  A    between atoms: _97  and  _99
REMARK   41  A    between atoms: _99  and  _100
REMARK   42  A    between atoms: _99  and  _102
REMARK   43  A    between atoms: _102  and  _103
REMARK   44  A    between atoms: _103  and  _104
REMARK   45  A    between atoms: _104  and  _105
REMARK   46  A    between atoms: _115  and  _116
REMARK   47  A    between atoms: _121  and  _123
REMARK   48  A    between atoms: _123  and  _124
REMARK   49  A    between atoms: _123  and  _126
REMARK   50  A    between atoms: _126  and  _127
REMARK   51  A    between atoms: _132  and  _133
REMARK   52  A    between atoms: _135  and  _137
REMARK   53  A    between atoms: _137  and  _138
REMARK   54  A    between atoms: _137  and  _140
REMARK   55  A    between atoms: _140  and  _141
REMARK   56  A    between atoms: _146  and  _147
REMARK   57  A    between atoms: _149  and  _151
REMARK   58  A    between atoms: _151  and  _152
REMARK   59  A    between atoms: _151  and  _154
REMARK   60  A    between atoms: _157  and  _159
REMARK   61  A    between atoms: _159  and  _160
REMARK   62  A    between atoms: _159  and  _162
REMARK   63  A    between atoms: _162  and  _163
REMARK   64  A    between atoms: _169  and  _170
REMARK   65  A    between atoms: _175  and  _177
REMARK   66  A    between atoms: _177  and  _178
REMARK   67  A    between atoms: _177  and  _180
REMARK   68  A    between atoms: _180  and  _181
REMARK   69  A    between atoms: _183  and  _185
REMARK   70  A    between atoms: _185  and  _186
REMARK   71  A    between atoms: _185  and  _188
REMARK   72  A    between atoms: _188  and  _189
REMARK   73  A    between atoms: _189  and  _190
REMARK   74  A    between atoms: _193  and  _195
REMARK   75  A    between atoms: _195  and  _196
REMARK   76  A    between atoms: _195  and  _198
REMARK   77  A    between atoms: _198  and  _199
REMARK   78  A    between atoms: _204  and  _205
REMARK   79  A    between atoms: _207  and  _209
REMARK   80  A    between atoms: _209  and  _210
REMARK   81  A    between atoms: _209  and  _212
REMARK   82  A    between atoms: _212  and  _213
REMARK   83  A    between atoms: _218  and  _220
REMARK   84  A    between atoms: _220  and  _221
REMARK   85  A    between atoms: _220  and  _223
REMARK   86  A    between atoms: _223  and  _224
REMARK   87  A    between atoms: _229  and  _231
REMARK   88  A    between atoms: _231  and  _232
REMARK   89  A    between atoms: _231  and  _234
REMARK   90  A    between atoms: _234  and  _235
REMARK   91  A    between atoms: _235  and  _236
REMARK   92  A    between atoms: _238  and  _240
REMARK   93  A    between atoms: _240  and  _241
REMARK   94  A    between atoms: _240  and  _243
REMARK   95  A    between atoms: _243  and  _244
REMARK   96  A    between atoms: _249  and  _250
REMARK   97  A    between atoms: _252  and  _254
REMARK   98  A    between atoms: _254  and  _255
REMARK   99  A    between atoms: _254  and  _257
REMARK  100  A    between atoms: _257  and  _258
REMARK  101  A    between atoms: _261  and  _263
REMARK  102  A    between atoms: _263  and  _264
REMARK  103  A    between atoms: _263  and  _266
REMARK  104  A    between atoms: _266  and  _267
REMARK  105  A    between atoms: _267  and  _484
REMARK  106  A    between atoms: _268  and  _270
REMARK  107  A    between atoms: _270  and  _271
REMARK  108  A    between atoms: _270  and  _273
REMARK  109  A    between atoms: _273  and  _274
REMARK  110  A    between atoms: _277  and  _279
REMARK  111  A    between atoms: _279  and  _280
REMARK  112  A    between atoms: _279  and  _282
REMARK  113  A    between atoms: _282  and  _283
REMARK  114  A    between atoms: _288  and  _289
REMARK  115  A    between atoms: _291  and  _293
REMARK  116  A    between atoms: _293  and  _294
REMARK  117  A    between atoms: _293  and  _296
REMARK  118  A    between atoms: _296  and  _297
REMARK  119  A    between atoms: _302  and  _303
REMARK  120  A    between atoms: _305  and  _307
REMARK  121  A    between atoms: _307  and  _308
REMARK  122  A    between atoms: _307  and  _310
REMARK  123  A    between atoms: _310  and  _311
REMARK  124  A    between atoms: _311  and  _312
REMARK  125  A    between atoms: _315  and  _317
REMARK  126  A    between atoms: _317  and  _318
REMARK  127  A    between atoms: _317  and  _320
REMARK  128  A    between atoms: _320  and  _321
REMARK  129  A    between atoms: _326  and  _327
REMARK  130  A    between atoms: _329  and  _331
REMARK  131  A    between atoms: _331  and  _332
REMARK  132  A    between atoms: _331  and  _334
REMARK  133  A    between atoms: _334  and  _335
REMARK  134  A    between atoms: _340  and  _342
REMARK  135  A    between atoms: _342  and  _343
REMARK  136  A    between atoms: _342  and  _345
REMARK  137  A    between atoms: _345  and  _346
REMARK  138  A    between atoms: _349  and  _351
REMARK  139  A    between atoms: _351  and  _352
REMARK  140  A    between atoms: _351  and  _354
REMARK  141  A    between atoms: _354  and  _355
REMARK  142  A    between atoms: _360  and  _362
REMARK  143  A    between atoms: _362  and  _363
REMARK  144  A    between atoms: _362  and  _365
REMARK  145  A    between atoms: _365  and  _366
REMARK  146  A    between atoms: _376  and  _378
REMARK  147  A    between atoms: _378  and  _379
REMARK  148  A    between atoms: _378  and  _381
REMARK  149  A    between atoms: _381  and  _382
REMARK  150  A    between atoms: _388  and  _390
REMARK  151  A    between atoms: _390  and  _391
REMARK  152  A    between atoms: _390  and  _393
REMARK  153  A    between atoms: _393  and  _394
REMARK  154  A    between atoms: _397  and  _399
REMARK  155  A    between atoms: _399  and  _400
REMARK  156  A    between atoms: _399  and  _402
REMARK  157  A    between atoms: _402  and  _403
REMARK  158  A    between atoms: _406  and  _408
REMARK  159  A    between atoms: _408  and  _409
REMARK  160  A    between atoms: _408  and  _411
REMARK  161  A    between atoms: _411  and  _412
REMARK  162  A    between atoms: _412  and  _413
REMARK  163  A    between atoms: _413  and  _414
REMARK  164  A    between atoms: _423  and  _425
REMARK  165  A    between atoms: _425  and  _426
REMARK  166  A    between atoms: _425  and  _428
REMARK  167  A    between atoms: _428  and  _429
REMARK  168  A    between atoms: _434  and  _436
REMARK  169  A    between atoms: _436  and  _437
REMARK  170  A    between atoms: _436  and  _439
REMARK  171  A    between atoms: _439  and  _440
REMARK  172  A    between atoms: _440  and  _441
REMARK  173  A    between atoms: _441  and  _442
REMARK  174  A    between atoms: _451  and  _453
REMARK  175  A    between atoms: _453  and  _454
REMARK  176  A    between atoms: _457  and  _459
REMARK  177  A    between atoms: _459  and  _460
REMARK  178  A    between atoms: _462  and  _464
REMARK  179  A    between atoms: _464  and  _465
REMARK  180  A    between atoms: _464  and  _467
REMARK  181  A    between atoms: _467  and  _468
REMARK  182  A    between atoms: _478  and  _480
REMARK  183  A    between atoms: _480  and  _481
REMARK  184  A    between atoms: _480  and  _483
REMARK  185  A    between atoms: _483  and  _484
REMARK  186  A    between atoms: _485  and  _487
REMARK  187  A    between atoms: _487  and  _488
REMARK  188  A    between atoms: _491  and  _493
REMARK  189  A    between atoms: _493  and  _494
REMARK  190  A    between atoms: _493  and  _496
REMARK  191  A    between atoms: _496  and  _497
REMARK  192  A    between atoms: _500  and  _502
REMARK  193  A    between atoms: _502  and  _503
REMARK  194  A    between atoms: _502  and  _505
REMARK  195  A    between atoms: _505  and  _506
REMARK  196  A    between atoms: _511  and  _512
REMARK  197  A    between atoms: _514  and  _516
REMARK  198  A    between atoms: _516  and  _517
REMARK  199  A    between atoms: _516  and  _519
REMARK  200  A    between atoms: _519  and  _520
REMARK  201  A    between atoms: _522  and  _524
REMARK  202  A    between atoms: _524  and  _525
REMARK  203  A    between atoms: _524  and  _527
REMARK  204  A    between atoms: _527  and  _528
REMARK  205  A    between atoms: _534  and  _536
REMARK  206  A    between atoms: _536  and  _537
REMARK  207  A    between atoms: _536  and  _539
REMARK  208  A    between atoms: _539  and  _540
REMARK  209  A    between atoms: _543  and  _545
REMARK  210  A    between atoms: _545  and  _546
REMARK  211  A    between atoms: _545  and  _548
REMARK  212  A    between atoms: _548  and  _549
REMARK  213  A    between atoms: _551  and  _553
REMARK  214  A    between atoms: _553  and  _554
REMARK  215  A    between atoms: _553  and  _556
REMARK  216  A    between atoms: _556  and  _557
REMARK  217  A    between atoms: _559  and  _561
REMARK  218  A    between atoms: _561  and  _562
REMARK  219  A    between atoms: _561  and  _564
REMARK  220  A    between atoms: _564  and  _565
REMARK  221  A    between atoms: _570  and  _572
REMARK  222  A    between atoms: _572  and  _573
REMARK  223  A    between atoms: _572  and  _575
REMARK  224  A    between atoms: _575  and  _576
REMARK  225  A    between atoms: _581  and  _583
REMARK  226  A    between atoms: _583  and  _584
REMARK  227  A    between atoms: _583  and  _586
REMARK  228  A    between atoms: _586  and  _587
REMARK  229  A    between atoms: _590  and  _592
REMARK  230  A    between atoms: _592  and  _593
REMARK  231  A    between atoms: _596  and  _598
REMARK  232  A    between atoms: _598  and  _599
REMARK  233  A    between atoms: _598  and  _601
REMARK  234  A    between atoms: _601  and  _602
REMARK  235  A    between atoms: _607  and  _608
REMARK  236  A    between atoms: _610  and  _612
REMARK  237  A    between atoms: _612  and  _613
REMARK  238  A    between atoms: _612  and  _615
REMARK  239  A    between atoms: _615  and  _616
REMARK  240  A    between atoms: _621  and  _622
REMARK  241  A    between atoms: _624  and  _626
REMARK  242  A    between atoms: _626  and  _627
REMARK  243  A    between atoms: _626  and  _629
REMARK  244  A    between atoms: _632  and  _634
REMARK  245  A    between atoms: _634  and  _635
REMARK  246  A    between atoms: _634  and  _637
REMARK  247  A    between atoms: _637  and  _638
REMARK  248  A    between atoms: _643  and  _645
REMARK  249  A    between atoms: _645  and  _646
REMARK  250  A    between atoms: _649  and  _651
REMARK  251  A    between atoms: _651  and  _652
REMARK  252  A    between atoms: _651  and  _654
REMARK  253  A    between atoms: _654  and  _655
REMARK  254  A    between atoms: _655  and  _656
REMARK  255  A    between atoms: _656  and  _657
REMARK  256  A    between atoms: _666  and  _668
REMARK  257  A    between atoms: _668  and  _669
REMARK  258  A    between atoms: _668  and  _671
REMARK  259  A    between atoms: _671  and  _672
REMARK  260  A    between atoms: _675  and  _677
REMARK  261  A    between atoms: _677  and  _678
REMARK  262  A    between atoms: _677  and  _680
REMARK  263  A    between atoms: _680  and  _681
REMARK  264  A    between atoms: _684  and  _686
REMARK  265  A    between atoms: _686  and  _687
REMARK  266  A    between atoms: _686  and  _689
REMARK  267  A    between atoms: _689  and  _690
REMARK                            x       y       z     vdW  Elec       q    Type
REMARK                         _______ _______ _______ _____ _____    ______ ____
ROOT
ATOM      1  CA  ASP A   2       0.647  11.005   7.853  0.00  0.00    +0.160 C 
ENDROOT
BRANCH   1   4
ATOM      2  C   LEU A   1       2.171  10.697   9.758  0.00  0.00    +0.238 C 
ATOM      3  O   LEU A   1       2.456  11.879   9.830  0.00  0.00    -0.274 OA
ATOM      4  N   ASP A   2       1.324  10.173   8.854  0.00  0.00    -0.297 N 
ATOM      5  H   ASP A   2       1.144   9.149   8.865  0.00  0.00    +0.150 HD
BRANCH   2   6
ATOM      6  CA  LEU A   1       2.821   9.700  10.743  0.00  0.00    +0.145 C 
BRANCH   6   7
ATOM      7  N   LEU A   1       2.144   8.423  10.643  0.00  0.00    -0.238 NA
ATOM      8  H   LEU A   1       2.383   7.774   9.866  0.00  0.00    +0.142 HD
ENDBRANCH   6   7
BRANCH   6   9
ATOM      9  CB  LEU A   1       4.296   9.560  10.459  0.00  0.00    +0.026 C 
BRANCH   9  10
ATOM     10  CG  LEU A   1       5.152   8.698  11.386  0.00  0.00    +0.002 C 
ATOM     11  CD2 LEU A   1       4.700   8.654  12.808  0.00  0.00    +0.000 C 
ATOM     12  CD1 LEU A   1       6.598   9.234  11.331  0.00  0.00    +0.000 C 
ENDBRANCH   9  10
ENDBRANCH   6   9
ENDBRANCH   2   6
ENDBRANCH   1   4
BRANCH   1  13
ATOM     13  C   ASP A   2       1.624  11.847   7.039  0.00  0.00    +0.241 C 
ATOM     14  O   ASP A   2       1.438  13.042   6.772  0.00  0.00    -0.273 OA
ATOM     15  N   ASN A   3       2.707  11.189   6.584  0.00  0.00    -0.298 N 
ATOM     16  H   ASN A   3       2.827  10.182   6.814  0.00  0.00    +0.150 HD
BRANCH  15  17
ATOM     17  CA  ASN A   3       3.719  11.868   5.770  0.00  0.00    +0.146 C 
BRANCH  17  18
ATOM     18  C   ASN A   3       3.295  11.780   4.288  0.00  0.00    +0.227 C 
ATOM     19  O   ASN A   3       3.898  11.016   3.531  0.00  0.00    -0.286 OA
ENDBRANCH  17  18
BRANCH  17  20
ATOM     20  CB  ASN A   3       5.136  11.269   5.944  0.00  0.00    +0.112 C 
BRANCH  20  21
ATOM     21  CG  ASN A   3       5.753  11.774   7.231  0.00  0.00    +0.222 C 
ATOM     22  ND2 ASN A   3       6.440  10.914   7.977  0.00  0.00    -0.329 N 
ATOM     23 HD21 ASN A   3       6.853  11.223   8.880  0.00  0.00    +0.145 HD
ATOM     24 HD22 ASN A   3       6.564   9.932   7.657  0.00  0.00    +0.145 HD
ATOM     25  OD1 ASN A   3       5.592  12.931   7.582  0.00  0.00    -0.275 OA
ENDBRANCH  20  21
ENDBRANCH  17  20
ENDBRANCH  15  17
ENDBRANCH   1  13
BRANCH   1  26
ATOM     26  CB  ASP A   2      -0.436  11.882   8.510  0.00  0.00    +0.143 C 
BRANCH  26  27
ATOM     27  CG  ASP A   2      -1.499  12.223   7.436  0.00  0.00    +0.367 C 
ATOM     28  OD2 ASP A   2      -1.892  13.388   7.430  0.00  0.00    -0.246 OA
ATOM     29  OD1 ASP A   2      -1.853  11.322   6.655  0.00  0.00    -0.246 OA
ENDBRANCH  26  27
ENDBRANCH   1  26
TORSDOF 12
REMARK  Name = ../refined-set-2016/2olb/2olb_pocket.pdb
REMARK  267 active torsions:
REMARK  status: ('A' for Active; 'I' for Inactive)
REMARK    1  A    between atoms: _1  and  _3
REMARK    2  A    between atoms: _3  and  _4
REMARK    3  A    between atoms: _3  and  _6
REMARK    4  A    between atoms: _6  and  _7
REMARK    5  A    between atoms: _12  and  _14
REMARK    6  A    between atoms: _14  and  _15
REMARK    7  A    between atoms: _17  and  _19
REMARK    8  A    between atoms: _19  and  _20
REMARK    9  A    between atoms: _19  and  _22
REMARK   10  A    between atoms: _22  and  _23
REMARK   11  A    between atoms: _23  and  _24
REMARK   12  A    between atoms: _29  and  _31
REMARK   13  A    between atoms: _31  and  _32
REMARK   14  A    between atoms: _31  and  _34
REMARK   15  A    between atoms: _34  and  _35
REMARK   16  A    between atoms: _38  and  _40
REMARK   17  A    between atoms: _40  and  _41
REMARK   18  A    between atoms: _40  and  _43
REMARK   19  A    between atoms: _43  and  _44
REMARK   20  A    between atoms: _44  and  _45
REMARK   21  A    between atoms: _48  and  _50
REMARK   22  A    between atoms: _50  and  _51
REMARK   23  A    between atoms: _53  and  _55
REMARK   24  A    between atoms: _55  and  _56
REMARK   25  A    between atoms: _55  and  _58
REMARK   26  A    between atoms: _62  and  _63
REMARK   27  A    between atoms: _68  and  _70
REMARK   28  A    between atoms: _70  and  _71
REMARK   29  A    between atoms: _70  and  _73
REMARK   30  A    between atoms: _73  and  _74
REMARK   31  A    between atoms: _74  and  _75
REMARK   32  A    between atoms: _78  and  _80
REMARK   33  A    between atoms: _80  and  _81
REMARK   34  A    between atoms: _80  and  _83
REMARK   35  A    between atoms: _83  and  _84
REMARK   36  A    between atoms: _86  and  _88
REMARK   37  A    between atoms: _88  and  _89
REMARK   38  A    between atoms: _88  and  _91
REMARK   39  A    between atoms: _91  and  _92
REMARK   40  A    between atoms: _97  and  _99
REMARK   41  A    between atoms: _99  and  _100
REMARK   42  A    between atoms: _99  and  _102
REMARK   43  A    between atoms: _102  and  _103
REMARK   44  A    between atoms: _103  and  _104
REMARK   45  A    between atoms: _104  and  _105
REMARK   46  A    between atoms: _115  and  _116
REMARK   47  A    between atoms: _121  and  _123
REMARK   48  A    between atoms: _123  and  _124
REMARK   49  A    between atoms: _123  and  _126
REMARK   50  A    between atoms: _126  and  _127
REMARK   51  A    between atoms: _132  and  _133
REMARK   52  A    between atoms: _135  and  _137
REMARK   53  A    between atoms: _137  and  _138
REMARK   54  A    between atoms: _137  and  _140
REMARK   55  A    between atoms: _140  and  _141
REMARK   56  A    between atoms: _146  and  _147
REMARK   57  A    between atoms: _149  and  _151
REMARK   58  A    between atoms: _151  and  _152
REMARK   59  A    between atoms: _151  and  _154
REMARK   60  A    between atoms: _157  and  _159
REMARK   61  A    between atoms: _159  and  _160
REMARK   62  A    between atoms: _159  and  _162
REMARK   63  A    between atoms: _162  and  _163
REMARK   64  A    between atoms: _169  and  _170
REMARK   65  A    between atoms: _175  and  _177
REMARK   66  A    between atoms: _177  and  _178
REMARK   67  A    between atoms: _177  and  _180
REMARK   68  A    between atoms: _180  and  _181
REMARK   69  A    between atoms: _183  and  _185
REMARK   70  A    between atoms: _185  and  _186
REMARK   71  A    between atoms: _185  and  _188
REMARK   72  A    between atoms: _188  and  _189
REMARK   73  A    between atoms: _189  and  _190
REMARK   74  A    between atoms: _193  and  _195
REMARK   75  A    between atoms: _195  and  _196
REMARK   76  A    between atoms: _195  and  _198
REMARK   77  A    between atoms: _198  and  _199
REMARK   78  A    between atoms: _204  and  _205
REMARK   79  A    between atoms: _207  and  _209
REMARK   80  A    between atoms: _209  and  _210
REMARK   81  A    between atoms: _209  and  _212
REMARK   82  A    between atoms: _212  and  _213
REMARK   83  A    between atoms: _218  and  _220
REMARK   84  A    between atoms: _220  and  _221
REMARK   85  A    between atoms: _220  and  _223
REMARK   86  A    between atoms: _223  and  _224
REMARK   87  A    between atoms: _229  and  _231
REMARK   88  A    between atoms: _231  and  _232
REMARK   89  A    between atoms: _231  and  _234
REMARK   90  A    between atoms: _234  and  _235
REMARK   91  A    between atoms: _235  and  _236
REMARK   92  A    between atoms: _238  and  _240
REMARK   93  A    between atoms: _240  and  _241
REMARK   94  A    between atoms: _240  and  _243
REMARK   95  A    between atoms: _243  and  _244
REMARK   96  A    between atoms: _249  and  _250
REMARK   97  A    between atoms: _252  and  _254
REMARK   98  A    between atoms: _254  and  _255
REMARK   99  A    between atoms: _254  and  _257
REMARK  100  A    between atoms: _257  and  _258
REMARK  101  A    between atoms: _261  and  _263
REMARK  102  A    between atoms: _263  and  _264
REMARK  103  A    between atoms: _263  and  _266
REMARK  104  A    between atoms: _266  and  _267
REMARK  105  A    between atoms: _267  and  _484
REMARK  106  A    between atoms: _268  and  _270
REMARK  107  A    between atoms: _270  and  _271
REMARK  108  A    between atoms: _270  and  _273
REMARK  109  A    between atoms: _273  and  _274
REMARK  110  A    between atoms: _277  and  _279
REMARK  111  A    between atoms: _279  and  _280
REMARK  112  A    between atoms: _279  and  _282
REMARK  113  A    between atoms: _282  and  _283
REMARK  114  A    between atoms: _288  and  _289
REMARK  115  A    between atoms: _291  and  _293
REMARK  116  A    between atoms: _293  and  _294
REMARK  117  A    between atoms: _293  and  _296
REMARK  118  A    between atoms: _296  and  _297
REMARK  119  A    between atoms: _302  and  _303
REMARK  120  A    between atoms: _305  and  _307
REMARK  121  A    between atoms: _307  and  _308
REMARK  122  A    between atoms: _307  and  _310
REMARK  123  A    between atoms: _310  and  _311
REMARK  124  A    between atoms: _311  and  _312
REMARK  125  A    between atoms: _315  and  _317
REMARK  126  A    between atoms: _317  and  _318
REMARK  127  A    between atoms: _317  and  _320
REMARK  128  A    between atoms: _320  and  _321
REMARK  129  A    between atoms: _326  and  _327
REMARK  130  A    between atoms: _329  and  _331
REMARK  131  A    between atoms: _331  and  _332
REMARK  132  A    between atoms: _331  and  _334
REMARK  133  A    between atoms: _334  and  _335
REMARK  134  A    between atoms: _340  and  _342
REMARK  135  A    between atoms: _342  and  _343
REMARK  136  A    between atoms: _342  and  _345
REMARK  137  A    between atoms: _345  and  _346
REMARK  138  A    between atoms: _349  and  _351
REMARK  139  A    between atoms: _351  and  _352
REMARK  140  A    between atoms: _351  and  _354
REMARK  141  A    between atoms: _354  and  _355
REMARK  142  A    between atoms: _360  and  _362
REMARK  143  A    between atoms: _362  and  _363
REMARK  144  A    between atoms: _362  and  _365
REMARK  145  A    between atoms: _365  and  _366
REMARK  146  A    between atoms: _376  and  _378
REMARK  147  A    between atoms: _378  and  _379
REMARK  148  A    between atoms: _378  and  _381
REMARK  149  A    between atoms: _381  and  _382
REMARK  150  A    between atoms: _388  and  _390
REMARK  151  A    between atoms: _390  and  _391
REMARK  152  A    between atoms: _390  and  _393
REMARK  153  A    between atoms: _393  and  _394
REMARK  154  A    between atoms: _397  and  _399
REMARK  155  A    between atoms: _399  and  _400
REMARK  156  A    between atoms: _399  and  _402
REMARK  157  A    between atoms: _402  and  _403
REMARK  158  A    between atoms: _406  and  _408
REMARK  159  A    between atoms: _408  and  _409
REMARK  160  A    between atoms: _408  and  _411
REMARK  161  A    between atoms: _411  and  _412
REMARK  162  A    between atoms: _412  and  _413
REMARK  163  A    between atoms: _413  and  _414
REMARK  164  A    between atoms: _423  and  _425
REMARK  165  A    between atoms: _425  and  _426
REMARK  166  A    between atoms: _425  and  _428
REMARK  167  A    between atoms: _428  and  _429
REMARK  168  A    between atoms: _434  and  _436
REMARK  169  A    between atoms: _436  and  _437
REMARK  170  A    between atoms: _436  and  _439
REMARK  171  A    between atoms: _439  and  _440
REMARK  172  A    between atoms: _440  and  _441
REMARK  173  A    between atoms: _441  and  _442
REMARK  174  A    between atoms: _451  and  _453
REMARK  175  A    between atoms: _453  and  _454
REMARK  176  A    between atoms: _457  and  _459
REMARK  177  A    between atoms: _459  and  _460
REMARK  178  A    between atoms: _462  and  _464
REMARK  179  A    between atoms: _464  and  _465
REMARK  180  A    between atoms: _464  and  _467
REMARK  181  A    between atoms: _467  and  _468
REMARK  182  A    between atoms: _478  and  _480
REMARK  183  A    between atoms: _480  and  _481
REMARK  184  A    between atoms: _480  and  _483
REMARK  185  A    between atoms: _483  and  _484
REMARK  186  A    between atoms: _485  and  _487
REMARK  187  A    between atoms: _487  and  _488
REMARK  188  A    between atoms: _491  and  _493
REMARK  189  A    between atoms: _493  and  _494
REMARK  190  A    between atoms: _493  and  _496
REMARK  191  A    between atoms: _496  and  _497
REMARK  192  A    between atoms: _500  and  _502
REMARK  193  A    between atoms: _502  and  _503
REMARK  194  A    between atoms: _502  and  _505
REMARK  195  A    between atoms: _505  and  _506
REMARK  196  A    between atoms: _511  and  _512
REMARK  197  A    between atoms: _514  and  _516
REMARK  198  A    between atoms: _516  and  _517
REMARK  199  A    between atoms: _516  and  _519
REMARK  200  A    between atoms: _519  and  _520
REMARK  201  A    between atoms: _522  and  _524
REMARK  202  A    between atoms: _524  and  _525
REMARK  203  A    between atoms: _524  and  _527
REMARK  204  A    between atoms: _527  and  _528
REMARK  205  A    between atoms: _534  and  _536
REMARK  206  A    between atoms: _536  and  _537
REMARK  207  A    between atoms: _536  and  _539
REMARK  208  A    between atoms: _539  and  _540
REMARK  209  A    between atoms: _543  and  _545
REMARK  210  A    between atoms: _545  and  _546
REMARK  211  A    between atoms: _545  and  _548
REMARK  212  A    between atoms: _548  and  _549
REMARK  213  A    between atoms: _551  and  _553
REMARK  214  A    between atoms: _553  and  _554
REMARK  215  A    between atoms: _553  and  _556
REMARK  216  A    between atoms: _556  and  _557
REMARK  217  A    between atoms: _559  and  _561
REMARK  218  A    between atoms: _561  and  _562
REMARK  219  A    between atoms: _561  and  _564
REMARK  220  A    between atoms: _564  and  _565
REMARK  221  A    between atoms: _570  and  _572
REMARK  222  A    between atoms: _572  and  _573
REMARK  223  A    between atoms: _572  and  _575
REMARK  224  A    between atoms: _575  and  _576
REMARK  225  A    between atoms: _581  and  _583
REMARK  226  A    between atoms: _583  and  _584
REMARK  227  A    between atoms: _583  and  _586
REMARK  228  A    between atoms: _586  and  _587
REMARK  229  A    between atoms: _590  and  _592
REMARK  230  A    between atoms: _592  and  _593
REMARK  231  A    between atoms: _596  and  _598
REMARK  232  A    between atoms: _598  and  _599
REMARK  233  A    between atoms: _598  and  _601
REMARK  234  A    between atoms: _601  and  _602
REMARK  235  A    between atoms: _607  and  _608
REMARK  236  A    between atoms: _610  and  _612
REMARK  237  A    between atoms: _612  and  _613
REMARK  238  A    between atoms: _612  and  _615
REMARK  239  A    between atoms: _615  and  _616
REMARK  240  A    between atoms: _621  and  _622
REMARK  241  A    between atoms: _624  and  _626
REMARK  242  A    between atoms: _626  and  _627
REMARK  243  A    between atoms: _626  and  _629
REMARK  244  A    between atoms: _632  and  _634
REMARK  245  A    between atoms: _634  and  _635
REMARK  246  A    between atoms: _634  and  _637
REMARK  247  A    between atoms: _637  and  _638
REMARK  248  A    between atoms: _643  and  _645
REMARK  249  A    between atoms: _645  and  _646
REMARK  250  A    between atoms: _649  and  _651
REMARK  251  A    between atoms: _651  and  _652
REMARK  252  A    between atoms: _651  and  _654
REMARK  253  A    between atoms: _654  and  _655
REMARK  254  A    between atoms: _655  and  _656
REMARK  255  A    between atoms: _656  and  _657
REMARK  256  A    between atoms: _666  and  _668
REMARK  257  A    between atoms: _668  and  _669
REMARK  258  A    between atoms: _668  and  _671
REMARK  259  A    between atoms: _671  and  _672
REMARK  260  A    between atoms: _675  and  _677
REMARK  261  A    between atoms: _677  and  _678
REMARK  262  A    between atoms: _677  and  _680
REMARK  263  A    between atoms: _680  and  _681
REMARK  264  A    between atoms: _684  and  _686
REMARK  265  A    between atoms: _686  and  _687
REMARK  266  A    between atoms: _686  and  _689
REMARK  267  A    between atoms: _689  and  _690
REMARK                            x       y       z     vdW  Elec       q    Type
REMARK                         _______ _______ _______ _____ _____    ______ ____
ROOT
ATOM      1  O   HOH     1      11.270  13.778  16.823  0.00  0.00    +0.000 OA
ENDROOT
TORSDOF 0
REMARK  Name = ../refined-set-2016/2olb/2olb_pocket.pdb
REMARK  267 active torsions:
REMARK  status: ('A' for Active; 'I' for Inactive)
REMARK    1  A    between atoms: _1  and  _3
REMARK    2  A    between atoms: _3  and  _4
REMARK    3  A    between atoms: _3  and  _6
REMARK    4  A    between atoms: _6  and  _7
REMARK    5  A    between atoms: _12  and  _14
REMARK    6  A    between atoms: _14  and  _15
REMARK    7  A    between atoms: _17  and  _19
REMARK    8  A    between atoms: _19  and  _20
REMARK    9  A    between atoms: _19  and  _22
REMARK   10  A    between atoms: _22  and  _23
REMARK   11  A    between atoms: _23  and  _24
REMARK   12  A    between atoms: _29  and  _31
REMARK   13  A    between atoms: _31  and  _32
REMARK   14  A    between atoms: _31  and  _34
REMARK   15  A    between atoms: _34  and  _35
REMARK   16  A    between atoms: _38  and  _40
REMARK   17  A    between atoms: _40  and  _41
REMARK   18  A    between atoms: _40  and  _43
REMARK   19  A    between atoms: _43  and  _44
REMARK   20  A    between atoms: _44  and  _45
REMARK   21  A    between atoms: _48  and  _50
REMARK   22  A    between atoms: _50  and  _51
REMARK   23  A    between atoms: _53  and  _55
REMARK   24  A    between atoms: _55  and  _56
REMARK   25  A    between atoms: _55  and  _58
REMARK   26  A    between atoms: _62  and  _63
REMARK   27  A    between atoms: _68  and  _70
REMARK   28  A    between atoms: _70  and  _71
REMARK   29  A    between atoms: _70  and  _73
REMARK   30  A    between atoms: _73  and  _74
REMARK   31  A    between atoms: _74  and  _75
REMARK   32  A    between atoms: _78  and  _80
REMARK   33  A    between atoms: _80  and  _81
REMARK   34  A    between atoms: _80  and  _83
REMARK   35  A    between atoms: _83  and  _84
REMARK   36  A    between atoms: _86  and  _88
REMARK   37  A    between atoms: _88  and  _89
REMARK   38  A    between atoms: _88  and  _91
REMARK   39  A    between atoms: _91  and  _92
REMARK   40  A    between atoms: _97  and  _99
REMARK   41  A    between atoms: _99  and  _100
REMARK   42  A    between atoms: _99  and  _102
REMARK   43  A    between atoms: _102  and  _103
REMARK   44  A    between atoms: _103  and  _104
REMARK   45  A    between atoms: _104  and  _105
REMARK   46  A    between atoms: _115  and  _116
REMARK   47  A    between atoms: _121  and  _123
REMARK   48  A    between atoms: _123  and  _124
REMARK   49  A    between atoms: _123  and  _126
REMARK   50  A    between atoms: _126  and  _127
REMARK   51  A    between atoms: _132  and  _133
REMARK   52  A    between atoms: _135  and  _137
REMARK   53  A    between atoms: _137  and  _138
REMARK   54  A    between atoms: _137  and  _140
REMARK   55  A    between atoms: _140  and  _141
REMARK   56  A    between atoms: _146  and  _147
REMARK   57  A    between atoms: _149  and  _151
REMARK   58  A    between atoms: _151  and  _152
REMARK   59  A    between atoms: _151  and  _154
REMARK   60  A    between atoms: _157  and  _159
REMARK   61  A    between atoms: _159  and  _160
REMARK   62  A    between atoms: _159  and  _162
REMARK   63  A    between atoms: _162  and  _163
REMARK   64  A    between atoms: _169  and  _170
REMARK   65  A    between atoms: _175  and  _177
REMARK   66  A    between atoms: _177  and  _178
REMARK   67  A    between atoms: _177  and  _180
REMARK   68  A    between atoms: _180  and  _181
REMARK   69  A    between atoms: _183  and  _185
REMARK   70  A    between atoms: _185  and  _186
REMARK   71  A    between atoms: _185  and  _188
REMARK   72  A    between atoms: _188  and  _189
REMARK   73  A    between atoms: _189  and  _190
REMARK   74  A    between atoms: _193  and  _195
REMARK   75  A    between atoms: _195  and  _196
REMARK   76  A    between atoms: _195  and  _198
REMARK   77  A    between atoms: _198  and  _199
REMARK   78  A    between atoms: _204  and  _205
REMARK   79  A    between atoms: _207  and  _209
REMARK   80  A    between atoms: _209  and  _210
REMARK   81  A    between atoms: _209  and  _212
REMARK   82  A    between atoms: _212  and  _213
REMARK   83  A    between atoms: _218  and  _220
REMARK   84  A    between atoms: _220  and  _221
REMARK   85  A    between atoms: _220  and  _223
REMARK   86  A    between atoms: _223  and  _224
REMARK   87  A    between atoms: _229  and  _231
REMARK   88  A    between atoms: _231  and  _232
REMARK   89  A    between atoms: _231  and  _234
REMARK   90  A    between atoms: _234  and  _235
REMARK   91  A    between atoms: _235  and  _236
REMARK   92  A    between atoms: _238  and  _240
REMARK   93  A    between atoms: _240  and  _241
REMARK   94  A    between atoms: _240  and  _243
REMARK   95  A    between atoms: _243  and  _244
REMARK   96  A    between atoms: _249  and  _250
REMARK   97  A    between atoms: _252  and  _254
REMARK   98  A    between atoms: _254  and  _255
REMARK   99  A    between atoms: _254  and  _257
REMARK  100  A    between atoms: _257  and  _258
REMARK  101  A    between atoms: _261  and  _263
REMARK  102  A    between atoms: _263  and  _264
REMARK  103  A    between atoms: _263  and  _266
REMARK  104  A    between atoms: _266  and  _267
REMARK  105  A    between atoms: _267  and  _484
REMARK  106  A    between atoms: _268  and  _270
REMARK  107  A    between atoms: _270  and  _271
REMARK  108  A    between atoms: _270  and  _273
REMARK  109  A    between atoms: _273  and  _274
REMARK  110  A    between atoms: _277  and  _279
REMARK  111  A    between atoms: _279  and  _280
REMARK  112  A    between atoms: _279  and  _282
REMARK  113  A    between atoms: _282  and  _283
REMARK  114  A    between atoms: _288  and  _289
REMARK  115  A    between atoms: _291  and  _293
REMARK  116  A    between atoms: _293  and  _294
REMARK  117  A    between atoms: _293  and  _296
REMARK  118  A    between atoms: _296  and  _297
REMARK  119  A    between atoms: _302  and  _303
REMARK  120  A    between atoms: _305  and  _307
REMARK  121  A    between atoms: _307  and  _308
REMARK  122  A    between atoms: _307  and  _310
REMARK  123  A    between atoms: _310  and  _311
REMARK  124  A    between atoms: _311  and  _312
REMARK  125  A    between atoms: _315  and  _317
REMARK  126  A    between atoms: _317  and  _318
REMARK  127  A    between atoms: _317  and  _320
REMARK  128  A    between atoms: _320  and  _321
REMARK  129  A    between atoms: _326  and  _327
REMARK  130  A    between atoms: _329  and  _331
REMARK  131  A    between atoms: _331  and  _332
REMARK  132  A    between atoms: _331  and  _334
REMARK  133  A    between atoms: _334  and  _335
REMARK  134  A    between atoms: _340  and  _342
REMARK  135  A    between atoms: _342  and  _343
REMARK  136  A    between atoms: _342  and  _345
REMARK  137  A    between atoms: _345  and  _346
REMARK  138  A    between atoms: _349  and  _351
REMARK  139  A    between atoms: _351  and  _352
REMARK  140  A    between atoms: _351  and  _354
REMARK  141  A    between atoms: _354  and  _355
REMARK  142  A    between atoms: _360  and  _362
REMARK  143  A    between atoms: _362  and  _363
REMARK  144  A    between atoms: _362  and  _365
REMARK  145  A    between atoms: _365  and  _366
REMARK  146  A    between atoms: _376  and  _378
REMARK  147  A    between atoms: _378  and  _379
REMARK  148  A    between atoms: _378  and  _381
REMARK  149  A    between atoms: _381  and  _382
REMARK  150  A    between atoms: _388  and  _390
REMARK  151  A    between atoms: _390  and  _391
REMARK  152  A    between atoms: _390  and  _393
REMARK  153  A    between atoms: _393  and  _394
REMARK  154  A    between atoms: _397  and  _399
REMARK  155  A    between atoms: _399  and  _400
REMARK  156  A    between atoms: _399  and  _402
REMARK  157  A    between atoms: _402  and  _403
REMARK  158  A    between atoms: _406  and  _408
REMARK  159  A    between atoms: _408  and  _409
REMARK  160  A    between atoms: _408  and  _411
REMARK  161  A    between atoms: _411  and  _412
REMARK  162  A    between atoms: _412  and  _413
REMARK  163  A    between atoms: _413  and  _414
REMARK  164  A    between atoms: _423  and  _425
REMARK  165  A    between atoms: _425  and  _426
REMARK  166  A    between atoms: _425  and  _428
REMARK  167  A    between atoms: _428  and  _429
REMARK  168  A    between atoms: _434  and  _436
REMARK  169  A    between atoms: _436  and  _437
REMARK  170  A    between atoms: _436  and  _439
REMARK  171  A    between atoms: _439  and  _440
REMARK  172  A    between atoms: _440  and  _441
REMARK  173  A    between atoms: _441  and  _442
REMARK  174  A    between atoms: _451  and  _453
REMARK  175  A    between atoms: _453  and  _454
REMARK  176  A    between atoms: _457  and  _459
REMARK  177  A    between atoms: _459  and  _460
REMARK  178  A    between atoms: _462  and  _464
REMARK  179  A    between atoms: _464  and  _465
REMARK  180  A    between atoms: _464  and  _467
REMARK  181  A    between atoms: _467  and  _468
REMARK  182  A    between atoms: _478  and  _480
REMARK  183  A    between atoms: _480  and  _481
REMARK  184  A    between atoms: _480  and  _483
REMARK  185  A    between atoms: _483  and  _484
REMARK  186  A    between atoms: _485  and  _487
REMARK  187  A    between atoms: _487  and  _488
REMARK  188  A    between atoms: _491  and  _493
REMARK  189  A    between atoms: _493  and  _494
REMARK  190  A    between atoms: _493  and  _496
REMARK  191  A    between atoms: _496  and  _497
REMARK  192  A    between atoms: _500  and  _502
REMARK  193  A    between atoms: _502  and  _503
REMARK  194  A    between atoms: _502  and  _505
REMARK  195  A    between atoms: _505  and  _506
REMARK  196  A    between atoms: _511  and  _512
REMARK  197  A    between atoms: _514  and  _516
REMARK  198  A    between atoms: _516  and  _517
REMARK  199  A    between atoms: _516  and  _519
REMARK  200  A    between atoms: _519  and  _520
REMARK  201  A    between atoms: _522  and  _524
REMARK  202  A    between atoms: _524  and  _525
REMARK  203  A    between atoms: _524  and  _527
REMARK  204  A    between atoms: _527  and  _528
REMARK  205  A    between atoms: _534  and  _536
REMARK  206  A    between atoms: _536  and  _537
REMARK  207  A    between atoms: _536  and  _539
REMARK  208  A    between atoms: _539  and  _540
REMARK  209  A    between atoms: _543  and  _545
REMARK  210  A    between atoms: _545  and  _546
REMARK  211  A    between atoms: _545  and  _548
REMARK  212  A    between atoms: _548  and  _549
REMARK  213  A    between atoms: _551  and  _553
REMARK  214  A    between atoms: _553  and  _554
REMARK  215  A    between atoms: _553  and  _556
REMARK  216  A    between atoms: _556  and  _557
REMARK  217  A    between atoms: _559  and  _561
REMARK  218  A    between atoms: _561  and  _562
REMARK  219  A    between atoms: _561  and  _564
REMARK  220  A    between atoms: _564  and  _565
REMARK  221  A    between atoms: _570  and  _572
REMARK  222  A    between atoms: _572  and  _573
REMARK  223  A    between atoms: _572  and  _575
REMARK  224  A    between atoms: _575  and  _576
REMARK  225  A    between atoms: _581  and  _583
REMARK  226  A    between atoms: _583  and  _584
REMARK  227  A    between atoms: _583  and  _586
REMARK  228  A    between atoms: _586  and  _587
REMARK  229  A    between atoms: _590  and  _592
REMARK  230  A    between atoms: _592  and  _593
REMARK  231  A    between atoms: _596  and  _598
REMARK  232  A    between atoms: _598  and  _599
REMARK  233  A    between atoms: _598  and  _601
REMARK  234  A    between atoms: _601  and  _602
REMARK  235  A    between atoms: _607  and  _608
REMARK  236  A    between atoms: _610  and  _612
REMARK  237  A    between atoms: _612  and  _613
REMARK  238  A    between atoms: _612  and  _615
REMARK  239  A    between atoms: _615  and  _616
REMARK  240  A    between atoms: _621  and  _622
REMARK  241  A    between atoms: _624  and  _626
REMARK  242  A    between atoms: _626  and  _627
REMARK  243  A    between atoms: _626  and  _629
REMARK  244  A    between atoms: _632  and  _634
REMARK  245  A    between atoms: _634  and  _635
REMARK  246  A    between atoms: _634  and  _637
REMARK  247  A    between atoms: _637  and  _638
REMARK  248  A    between atoms: _643  and  _645
REMARK  249  A    between atoms: _645  and  _646
REMARK  250  A    between atoms: _649  and  _651
REMARK  251  A    between atoms: _651  and  _652
REMARK  252  A    between atoms: _651  and  _654
REMARK  253  A    between atoms: _654  and  _655
REMARK  254  A    between atoms: _655  and  _656
REMARK  255  A    between atoms: _656  and  _657
REMARK  256  A    between atoms: _666  and  _668
REMARK  257  A    between atoms: _668  and  _669
REMARK  258  A    between atoms: _668  and  _671
REMARK  259  A    between atoms: _671  and  _672
REMARK  260  A    between atoms: _675  and  _677
REMARK  261  A    between atoms: _677  and  _678
REMARK  262  A    between atoms: _677  and  _680
REMARK  263  A    between atoms: _680  and  _681
REMARK  264  A    between atoms: _684  and  _686
REMARK  265  A    between atoms: _686  and  _687
REMARK  266  A    between atoms: _686  and  _689
REMARK  267  A    between atoms: _689  and  _690
REMARK                            x       y       z     vdW  Elec       q    Type
REMARK                         _______ _______ _______ _____ _____    ______ ____
ROOT
ATOM      1  O   HOH     1      -9.629  21.804   9.158  0.00  0.00    +0.000 OA
ENDROOT
TORSDOF 0
REMARK  Name = ../refined-set-2016/2olb/2olb_pocket.pdb
REMARK  267 active torsions:
REMARK  status: ('A' for Active; 'I' for Inactive)
REMARK    1  A    between atoms: _1  and  _3
REMARK    2  A    between atoms: _3  and  _4
REMARK    3  A    between atoms: _3  and  _6
REMARK    4  A    between atoms: _6  and  _7
REMARK    5  A    between atoms: _12  and  _14
REMARK    6  A    between atoms: _14  and  _15
REMARK    7  A    between atoms: _17  and  _19
REMARK    8  A    between atoms: _19  and  _20
REMARK    9  A    between atoms: _19  and  _22
REMARK   10  A    between atoms: _22  and  _23
REMARK   11  A    between atoms: _23  and  _24
REMARK   12  A    between atoms: _29  and  _31
REMARK   13  A    between atoms: _31  and  _32
REMARK   14  A    between atoms: _31  and  _34
REMARK   15  A    between atoms: _34  and  _35
REMARK   16  A    between atoms: _38  and  _40
REMARK   17  A    between atoms: _40  and  _41
REMARK   18  A    between atoms: _40  and  _43
REMARK   19  A    between atoms: _43  and  _44
REMARK   20  A    between atoms: _44  and  _45
REMARK   21  A    between atoms: _48  and  _50
REMARK   22  A    between atoms: _50  and  _51
REMARK   23  A    between atoms: _53  and  _55
REMARK   24  A    between atoms: _55  and  _56
REMARK   25  A    between atoms: _55  and  _58
REMARK   26  A    between atoms: _62  and  _63
REMARK   27  A    between atoms: _68  and  _70
REMARK   28  A    between atoms: _70  and  _71
REMARK   29  A    between atoms: _70  and  _73
REMARK   30  A    between atoms: _73  and  _74
REMARK   31  A    between atoms: _74  and  _75
REMARK   32  A    between atoms: _78  and  _80
REMARK   33  A    between atoms: _80  and  _81
REMARK   34  A    between atoms: _80  and  _83
REMARK   35  A    between atoms: _83  and  _84
REMARK   36  A    between atoms: _86  and  _88
REMARK   37  A    between atoms: _88  and  _89
REMARK   38  A    between atoms: _88  and  _91
REMARK   39  A    between atoms: _91  and  _92
REMARK   40  A    between atoms: _97  and  _99
REMARK   41  A    between atoms: _99  and  _100
REMARK   42  A    between atoms: _99  and  _102
REMARK   43  A    between atoms: _102  and  _103
REMARK   44  A    between atoms: _103  and  _104
REMARK   45  A    between atoms: _104  and  _105
REMARK   46  A    between atoms: _115  and  _116
REMARK   47  A    between atoms: _121  and  _123
REMARK   48  A    between atoms: _123  and  _124
REMARK   49  A    between atoms: _123  and  _126
REMARK   50  A    between atoms: _126  and  _127
REMARK   51  A    between atoms: _132  and  _133
REMARK   52  A    between atoms: _135  and  _137
REMARK   53  A    between atoms: _137  and  _138
REMARK   54  A    between atoms: _137  and  _140
REMARK   55  A    between atoms: _140  and  _141
REMARK   56  A    between atoms: _146  and  _147
REMARK   57  A    between atoms: _149  and  _151
REMARK   58  A    between atoms: _151  and  _152
REMARK   59  A    between atoms: _151  and  _154
REMARK   60  A    between atoms: _157  and  _159
REMARK   61  A    between atoms: _159  and  _160
REMARK   62  A    between atoms: _159  and  _162
REMARK   63  A    between atoms: _162  and  _163
REMARK   64  A    between atoms: _169  and  _170
REMARK   65  A    between atoms: _175  and  _177
REMARK   66  A    between atoms: _177  and  _178
REMARK   67  A    between atoms: _177  and  _180
REMARK   68  A    between atoms: _180  and  _181
REMARK   69  A    between atoms: _183  and  _185
REMARK   70  A    between atoms: _185  and  _186
REMARK   71  A    between atoms: _185  and  _188
REMARK   72  A    between atoms: _188  and  _189
REMARK   73  A    between atoms: _189  and  _190
REMARK   74  A    between atoms: _193  and  _195
REMARK   75  A    between atoms: _195  and  _196
REMARK   76  A    between atoms: _195  and  _198
REMARK   77  A    between atoms: _198  and  _199
REMARK   78  A    between atoms: _204  and  _205
REMARK   79  A    between atoms: _207  and  _209
REMARK   80  A    between atoms: _209  and  _210
REMARK   81  A    between atoms: _209  and  _212
REMARK   82  A    between atoms: _212  and  _213
REMARK   83  A    between atoms: _218  and  _220
REMARK   84  A    between atoms: _220  and  _221
REMARK   85  A    between atoms: _220  and  _223
REMARK   86  A    between atoms: _223  and  _224
REMARK   87  A    between atoms: _229  and  _231
REMARK   88  A    between atoms: _231  and  _232
REMARK   89  A    between atoms: _231  and  _234
REMARK   90  A    between atoms: _234  and  _235
REMARK   91  A    between atoms: _235  and  _236
REMARK   92  A    between atoms: _238  and  _240
REMARK   93  A    between atoms: _240  and  _241
REMARK   94  A    between atoms: _240  and  _243
REMARK   95  A    between atoms: _243  and  _244
REMARK   96  A    between atoms: _249  and  _250
REMARK   97  A    between atoms: _252  and  _254
REMARK   98  A    between atoms: _254  and  _255
REMARK   99  A    between atoms: _254  and  _257
REMARK  100  A    between atoms: _257  and  _258
REMARK  101  A    between atoms: _261  and  _263
REMARK  102  A    between atoms: _263  and  _264
REMARK  103  A    between atoms: _263  and  _266
REMARK  104  A    between atoms: _266  and  _267
REMARK  105  A    between atoms: _267  and  _484
REMARK  106  A    between atoms: _268  and  _270
REMARK  107  A    between atoms: _270  and  _271
REMARK  108  A    between atoms: _270  and  _273
REMARK  109  A    between atoms: _273  and  _274
REMARK  110  A    between atoms: _277  and  _279
REMARK  111  A    between atoms: _279  and  _280
REMARK  112  A    between atoms: _279  and  _282
REMARK  113  A    between atoms: _282  and  _283
REMARK  114  A    between atoms: _288  and  _289
REMARK  115  A    between atoms: _291  and  _293
REMARK  116  A    between atoms: _293  and  _294
REMARK  117  A    between atoms: _293  and  _296
REMARK  118  A    between atoms: _296  and  _297
REMARK  119  A    between atoms: _302  and  _303
REMARK  120  A    between atoms: _305  and  _307
REMARK  121  A    between atoms: _307  and  _308
REMARK  122  A    between atoms: _307  and  _310
REMARK  123  A    between atoms: _310  and  _311
REMARK  124  A    between atoms: _311  and  _312
REMARK  125  A    between atoms: _315  and  _317
REMARK  126  A    between atoms: _317  and  _318
REMARK  127  A    between atoms: _317  and  _320
REMARK  128  A    between atoms: _320  and  _321
REMARK  129  A    between atoms: _326  and  _327
REMARK  130  A    between atoms: _329  and  _331
REMARK  131  A    between atoms: _331  and  _332
REMARK  132  A    between atoms: _331  and  _334
REMARK  133  A    between atoms: _334  and  _335
REMARK  134  A    between atoms: _340  and  _342
REMARK  135  A    between atoms: _342  and  _343
REMARK  136  A    between atoms: _342  and  _345
REMARK  137  A    between atoms: _345  and  _346
REMARK  138  A    between atoms: _349  and  _351
REMARK  139  A    between atoms: _351  and  _352
REMARK  140  A    between atoms: _351  and  _354
REMARK  141  A    between atoms: _354  and  _355
REMARK  142  A    between atoms: _360  and  _362
REMARK  143  A    between atoms: _362  and  _363
REMARK  144  A    between atoms: _362  and  _365
REMARK  145  A    between atoms: _365  and  _366
REMARK  146  A    between atoms: _376  and  _378
REMARK  147  A    between atoms: _378  and  _379
REMARK  148  A    between atoms: _378  and  _381
REMARK  149  A    between atoms: _381  and  _382
REMARK  150  A    between atoms: _388  and  _390
REMARK  151  A    between atoms: _390  and  _391
REMARK  152  A    between atoms: _390  and  _393
REMARK  153  A    between atoms: _393  and  _394
REMARK  154  A    between atoms: _397  and  _399
REMARK  155  A    between atoms: _399  and  _400
REMARK  156  A    between atoms: _399  and  _402
REMARK  157  A    between atoms: _402  and  _403
REMARK  158  A    between atoms: _406  and  _408
REMARK  159  A    between atoms: _408  and  _409
REMARK  160  A    between atoms: _408  and  _411
REMARK  161  A    between atoms: _411  and  _412
REMARK  162  A    between atoms: _412  and  _413
REMARK  163  A    between atoms: _413  and  _414
REMARK  164  A    between atoms: _423  and  _425
REMARK  165  A    between atoms: _425  and  _426
REMARK  166  A    between atoms: _425  and  _428
REMARK  167  A    between atoms: _428  and  _429
REMARK  168  A    between atoms: _434  and  _436
REMARK  169  A    between atoms: _436  and  _437
REMARK  170  A    between atoms: _436  and  _439
REMARK  171  A    between atoms: _439  and  _440
REMARK  172  A    between atoms: _440  and  _441
REMARK  173  A    between atoms: _441  and  _442
REMARK  174  A    between atoms: _451  and  _453
REMARK  175  A    between atoms: _453  and  _454
REMARK  176  A    between atoms: _457  and  _459
REMARK  177  A    between atoms: _459  and  _460
REMARK  178  A    between atoms: _462  and  _464
REMARK  179  A    between atoms: _464  and  _465
REMARK  180  A    between atoms: _464  and  _467
REMARK  181  A    between atoms: _467  and  _468
REMARK  182  A    between atoms: _478  and  _480
REMARK  183  A    between atoms: _480  and  _481
REMARK  184  A    between atoms: _480  and  _483
REMARK  185  A    between atoms: _483  and  _484
REMARK  186  A    between atoms: _485  and  _487
REMARK  187  A    between atoms: _487  and  _488
REMARK  188  A    between atoms: _491  and  _493
REMARK  189  A    between atoms: _493  and  _494
REMARK  190  A    between atoms: _493  and  _496
REMARK  191  A    between atoms: _496  and  _497
REMARK  192  A    between atoms: _500  and  _502
REMARK  193  A    between atoms: _502  and  _503
REMARK  194  A    between atoms: _502  and  _505
REMARK  195  A    between atoms: _505  and  _506
REMARK  196  A    between atoms: _511  and  _512
REMARK  197  A    between atoms: _514  and  _516
REMARK  198  A    between atoms: _516  and  _517
REMARK  199  A    between atoms: _516  and  _519
REMARK  200  A    between atoms: _519  and  _520
REMARK  201  A    between atoms: _522  and  _524
REMARK  202  A    between atoms: _524  and  _525
REMARK  203  A    between atoms: _524  and  _527
REMARK  204  A    between atoms: _527  and  _528
REMARK  205  A    between atoms: _534  and  _536
REMARK  206  A    between atoms: _536  and  _537
REMARK  207  A    between atoms: _536  and  _539
REMARK  208  A    between atoms: _539  and  _540
REMARK  209  A    between atoms: _543  and  _545
REMARK  210  A    between atoms: _545  and  _546
REMARK  211  A    between atoms: _545  and  _548
REMARK  212  A    between atoms: _548  and  _549
REMARK  213  A    between atoms: _551  and  _553
REMARK  214  A    between atoms: _553  and  _554
REMARK  215  A    between atoms: _553  and  _556
REMARK  216  A    between atoms: _556  and  _557
REMARK  217  A    between atoms: _559  and  _561
REMARK  218  A    between atoms: _561  and  _562
REMARK  219  A    between atoms: _561  and  _564
REMARK  220  A    between atoms: _564  and  _565
REMARK  221  A    between atoms: _570  and  _572
REMARK  222  A    between atoms: _572  and  _573
REMARK  223  A    between atoms: _572  and  _575
REMARK  224  A    between atoms: _575  and  _576
REMARK  225  A    between atoms: _581  and  _583
REMARK  226  A    between atoms: _583  and  _584
REMARK  227  A    between atoms: _583  and  _586
REMARK  228  A    between atoms: _586  and  _587
REMARK  229  A    between atoms: _590  and  _592
REMARK  230  A    between atoms: _592  and  _593
REMARK  231  A    between atoms: _596  and  _598
REMARK  232  A    between atoms: _598  and  _599
REMARK  233  A    between atoms: _598  and  _601
REMARK  234  A    between atoms: _601  and  _602
REMARK  235  A    between atoms: _607  and  _608
REMARK  236  A    between atoms: _610  and  _612
REMARK  237  A    between atoms: _612  and  _613
REMARK  238  A    between atoms: _612  and  _615
REMARK  239  A    between atoms: _615  and  _616
REMARK  240  A    between atoms: _621  and  _622
REMARK  241  A    between atoms: _624  and  _626
REMARK  242  A    between atoms: _626  and  _627
REMARK  243  A    between atoms: _626  and  _629
REMARK  244  A    between atoms: _632  and  _634
REMARK  245  A    between atoms: _634  and  _635
REMARK  246  A    between atoms: _634  and  _637
REMARK  247  A    between atoms: _637  and  _638
REMARK  248  A    between atoms: _643  and  _645
REMARK  249  A    between atoms: _645  and  _646
REMARK  250  A    between atoms: _649  and  _651
REMARK  251  A    between atoms: _651  and  _652
REMARK  252  A    between atoms: _651  and  _654
REMARK  253  A    between atoms: _654  and  _655
REMARK  254  A    between atoms: _655  and  _656
REMARK  255  A    between atoms: _656  and  _657
REMARK  256  A    between atoms: _666  and  _668
REMARK  257  A    between atoms: _668  and  _669
REMARK  258  A    between atoms: _668  and  _671
REMARK  259  A    between atoms: _671  and  _672
REMARK  260  A    between atoms: _675  and  _677
REMARK  261  A    between atoms: _677  and  _678
REMARK  262  A    between atoms: _677  and  _680
REMARK  263  A    between atoms: _680  and  _681
REMARK  264  A    between atoms: _684  and  _686
REMARK  265  A    between atoms: _686  and  _687
REMARK  266  A    between atoms: _686  and  _689
REMARK  267  A    between atoms: _689  and  _690
REMARK                            x       y       z     vdW  Elec       q    Type
REMARK                         _______ _______ _______ _____ _____    ______ ____
ROOT
ATOM      1  O   HOH     1       3.840  20.314  21.017  0.00  0.00    +0.000 OA
ENDROOT
TORSDOF 0
REMARK  Name = ../refined-set-2016/2olb/2olb_pocket.pdb
REMARK  267 active torsions:
REMARK  status: ('A' for Active; 'I' for Inactive)
REMARK    1  A    between atoms: _1  and  _3
REMARK    2  A    between atoms: _3  and  _4
REMARK    3  A    between atoms: _3  and  _6
REMARK    4  A    between atoms: _6  and  _7
REMARK    5  A    between atoms: _12  and  _14
REMARK    6  A    between atoms: _14  and  _15
REMARK    7  A    between atoms: _17  and  _19
REMARK    8  A    between atoms: _19  and  _20
REMARK    9  A    between atoms: _19  and  _22
REMARK   10  A    between atoms: _22  and  _23
REMARK   11  A    between atoms: _23  and  _24
REMARK   12  A    between atoms: _29  and  _31
REMARK   13  A    between atoms: _31  and  _32
REMARK   14  A    between atoms: _31  and  _34
REMARK   15  A    between atoms: _34  and  _35
REMARK   16  A    between atoms: _38  and  _40
REMARK   17  A    between atoms: _40  and  _41
REMARK   18  A    between atoms: _40  and  _43
REMARK   19  A    between atoms: _43  and  _44
REMARK   20  A    between atoms: _44  and  _45
REMARK   21  A    between atoms: _48  and  _50
REMARK   22  A    between atoms: _50  and  _51
REMARK   23  A    between atoms: _53  and  _55
REMARK   24  A    between atoms: _55  and  _56
REMARK   25  A    between atoms: _55  and  _58
REMARK   26  A    between atoms: _62  and  _63
REMARK   27  A    between atoms: _68  and  _70
REMARK   28  A    between atoms: _70  and  _71
REMARK   29  A    between atoms: _70  and  _73
REMARK   30  A    between atoms: _73  and  _74
REMARK   31  A    between atoms: _74  and  _75
REMARK   32  A    between atoms: _78  and  _80
REMARK   33  A    between atoms: _80  and  _81
REMARK   34  A    between atoms: _80  and  _83
REMARK   35  A    between atoms: _83  and  _84
REMARK   36  A    between atoms: _86  and  _88
REMARK   37  A    between atoms: _88  and  _89
REMARK   38  A    between atoms: _88  and  _91
REMARK   39  A    between atoms: _91  and  _92
REMARK   40  A    between atoms: _97  and  _99
REMARK   41  A    between atoms: _99  and  _100
REMARK   42  A    between atoms: _99  and  _102
REMARK   43  A    between atoms: _102  and  _103
REMARK   44  A    between atoms: _103  and  _104
REMARK   45  A    between atoms: _104  and  _105
REMARK   46  A    between atoms: _115  and  _116
REMARK   47  A    between atoms: _121  and  _123
REMARK   48  A    between atoms: _123  and  _124
REMARK   49  A    between atoms: _123  and  _126
REMARK   50  A    between atoms: _126  and  _127
REMARK   51  A    between atoms: _132  and  _133
REMARK   52  A    between atoms: _135  and  _137
REMARK   53  A    between atoms: _137  and  _138
REMARK   54  A    between atoms: _137  and  _140
REMARK   55  A    between atoms: _140  and  _141
REMARK   56  A    between atoms: _146  and  _147
REMARK   57  A    between atoms: _149  and  _151
REMARK   58  A    between atoms: _151  and  _152
REMARK   59  A    between atoms: _151  and  _154
REMARK   60  A    between atoms: _157  and  _159
REMARK   61  A    between atoms: _159  and  _160
REMARK   62  A    between atoms: _159  and  _162
REMARK   63  A    between atoms: _162  and  _163
REMARK   64  A    between atoms: _169  and  _170
REMARK   65  A    between atoms: _175  and  _177
REMARK   66  A    between atoms: _177  and  _178
REMARK   67  A    between atoms: _177  and  _180
REMARK   68  A    between atoms: _180  and  _181
REMARK   69  A    between atoms: _183  and  _185
REMARK   70  A    between atoms: _185  and  _186
REMARK   71  A    between atoms: _185  and  _188
REMARK   72  A    between atoms: _188  and  _189
REMARK   73  A    between atoms: _189  and  _190
REMARK   74  A    between atoms: _193  and  _195
REMARK   75  A    between atoms: _195  and  _196
REMARK   76  A    between atoms: _195  and  _198
REMARK   77  A    between atoms: _198  and  _199
REMARK   78  A    between atoms: _204  and  _205
REMARK   79  A    between atoms: _207  and  _209
REMARK   80  A    between atoms: _209  and  _210
REMARK   81  A    between atoms: _209  and  _212
REMARK   82  A    between atoms: _212  and  _213
REMARK   83  A    between atoms: _218  and  _220
REMARK   84  A    between atoms: _220  and  _221
REMARK   85  A    between atoms: _220  and  _223
REMARK   86  A    between atoms: _223  and  _224
REMARK   87  A    between atoms: _229  and  _231
REMARK   88  A    between atoms: _231  and  _232
REMARK   89  A    between atoms: _231  and  _234
REMARK   90  A    between atoms: _234  and  _235
REMARK   91  A    between atoms: _235  and  _236
REMARK   92  A    between atoms: _238  and  _240
REMARK   93  A    between atoms: _240  and  _241
REMARK   94  A    between atoms: _240  and  _243
REMARK   95  A    between atoms: _243  and  _244
REMARK   96  A    between atoms: _249  and  _250
REMARK   97  A    between atoms: _252  and  _254
REMARK   98  A    between atoms: _254  and  _255
REMARK   99  A    between atoms: _254  and  _257
REMARK  100  A    between atoms: _257  and  _258
REMARK  101  A    between atoms: _261  and  _263
REMARK  102  A    between atoms: _263  and  _264
REMARK  103  A    between atoms: _263  and  _266
REMARK  104  A    between atoms: _266  and  _267
REMARK  105  A    between atoms: _267  and  _484
REMARK  106  A    between atoms: _268  and  _270
REMARK  107  A    between atoms: _270  and  _271
REMARK  108  A    between atoms: _270  and  _273
REMARK  109  A    between atoms: _273  and  _274
REMARK  110  A    between atoms: _277  and  _279
REMARK  111  A    between atoms: _279  and  _280
REMARK  112  A    between atoms: _279  and  _282
REMARK  113  A    between atoms: _282  and  _283
REMARK  114  A    between atoms: _288  and  _289
REMARK  115  A    between atoms: _291  and  _293
REMARK  116  A    between atoms: _293  and  _294
REMARK  117  A    between atoms: _293  and  _296
REMARK  118  A    between atoms: _296  and  _297
REMARK  119  A    between atoms: _302  and  _303
REMARK  120  A    between atoms: _305  and  _307
REMARK  121  A    between atoms: _307  and  _308
REMARK  122  A    between atoms: _307  and  _310
REMARK  123  A    between atoms: _310  and  _311
REMARK  124  A    between atoms: _311  and  _312
REMARK  125  A    between atoms: _315  and  _317
REMARK  126  A    between atoms: _317  and  _318
REMARK  127  A    between atoms: _317  and  _320
REMARK  128  A    between atoms: _320  and  _321
REMARK  129  A    between atoms: _326  and  _327
REMARK  130  A    between atoms: _329  and  _331
REMARK  131  A    between atoms: _331  and  _332
REMARK  132  A    between atoms: _331  and  _334
REMARK  133  A    between atoms: _334  and  _335
REMARK  134  A    between atoms: _340  and  _342
REMARK  135  A    between atoms: _342  and  _343
REMARK  136  A    between atoms: _342  and  _345
REMARK  137  A    between atoms: _345  and  _346
REMARK  138  A    between atoms: _349  and  _351
REMARK  139  A    between atoms: _351  and  _352
REMARK  140  A    between atoms: _351  and  _354
REMARK  141  A    between atoms: _354  and  _355
REMARK  142  A    between atoms: _360  and  _362
REMARK  143  A    between atoms: _362  and  _363
REMARK  144  A    between atoms: _362  and  _365
REMARK  145  A    between atoms: _365  and  _366
REMARK  146  A    between atoms: _376  and  _378
REMARK  147  A    between atoms: _378  and  _379
REMARK  148  A    between atoms: _378  and  _381
REMARK  149  A    between atoms: _381  and  _382
REMARK  150  A    between atoms: _388  and  _390
REMARK  151  A    between atoms: _390  and  _391
REMARK  152  A    between atoms: _390  and  _393
REMARK  153  A    between atoms: _393  and  _394
REMARK  154  A    between atoms: _397  and  _399
REMARK  155  A    between atoms: _399  and  _400
REMARK  156  A    between atoms: _399  and  _402
REMARK  157  A    between atoms: _402  and  _403
REMARK  158  A    between atoms: _406  and  _408
REMARK  159  A    between atoms: _408  and  _409
REMARK  160  A    between atoms: _408  and  _411
REMARK  161  A    between atoms: _411  and  _412
REMARK  162  A    between atoms: _412  and  _413
REMARK  163  A    between atoms: _413  and  _414
REMARK  164  A    between atoms: _423  and  _425
REMARK  165  A    between atoms: _425  and  _426
REMARK  166  A    between atoms: _425  and  _428
REMARK  167  A    between atoms: _428  and  _429
REMARK  168  A    between atoms: _434  and  _436
REMARK  169  A    between atoms: _436  and  _437
REMARK  170  A    between atoms: _436  and  _439
REMARK  171  A    between atoms: _439  and  _440
REMARK  172  A    between atoms: _440  and  _441
REMARK  173  A    between atoms: _441  and  _442
REMARK  174  A    between atoms: _451  and  _453
REMARK  175  A    between atoms: _453  and  _454
REMARK  176  A    between atoms: _457  and  _459
REMARK  177  A    between atoms: _459  and  _460
REMARK  178  A    between atoms: _462  and  _464
REMARK  179  A    between atoms: _464  and  _465
REMARK  180  A    between atoms: _464  and  _467
REMARK  181  A    between atoms: _467  and  _468
REMARK  182  A    between atoms: _478  and  _480
REMARK  183  A    between atoms: _480  and  _481
REMARK  184  A    between atoms: _480  and  _483
REMARK  185  A    between atoms: _483  and  _484
REMARK  186  A    between atoms: _485  and  _487
REMARK  187  A    between atoms: _487  and  _488
REMARK  188  A    between atoms: _491  and  _493
REMARK  189  A    between atoms: _493  and  _494
REMARK  190  A    between atoms: _493  and  _496
REMARK  191  A    between atoms: _496  and  _497
REMARK  192  A    between atoms: _500  and  _502
REMARK  193  A    between atoms: _502  and  _503
REMARK  194  A    between atoms: _502  and  _505
REMARK  195  A    between atoms: _505  and  _506
REMARK  196  A    between atoms: _511  and  _512
REMARK  197  A    between atoms: _514  and  _516
REMARK  198  A    between atoms: _516  and  _517
REMARK  199  A    between atoms: _516  and  _519
REMARK  200  A    between atoms: _519  and  _520
REMARK  201  A    between atoms: _522  and  _524
REMARK  202  A    between atoms: _524  and  _525
REMARK  203  A    between atoms: _524  and  _527
REMARK  204  A    between atoms: _527  and  _528
REMARK  205  A    between atoms: _534  and  _536
REMARK  206  A    between atoms: _536  and  _537
REMARK  207  A    between atoms: _536  and  _539
REMARK  208  A    between atoms: _539  and  _540
REMARK  209  A    between atoms: _543  and  _545
REMARK  210  A    between atoms: _545  and  _546
REMARK  211  A    between atoms: _545  and  _548
REMARK  212  A    between atoms: _548  and  _549
REMARK  213  A    between atoms: _551  and  _553
REMARK  214  A    between atoms: _553  and  _554
REMARK  215  A    between atoms: _553  and  _556
REMARK  216  A    between atoms: _556  and  _557
REMARK  217  A    between atoms: _559  and  _561
REMARK  218  A    between atoms: _561  and  _562
REMARK  219  A    between atoms: _561  and  _564
REMARK  220  A    between atoms: _564  and  _565
REMARK  221  A    between atoms: _570  and  _572
REMARK  222  A    between atoms: _572  and  _573
REMARK  223  A    between atoms: _572  and  _575
REMARK  224  A    between atoms: _575  and  _576
REMARK  225  A    between atoms: _581  and  _583
REMARK  226  A    between atoms: _583  and  _584
REMARK  227  A    between atoms: _583  and  _586
REMARK  228  A    between atoms: _586  and  _587
REMARK  229  A    between atoms: _590  and  _592
REMARK  230  A    between atoms: _592  and  _593
REMARK  231  A    between atoms: _596  and  _598
REMARK  232  A    between atoms: _598  and  _599
REMARK  233  A    between atoms: _598  and  _601
REMARK  234  A    between atoms: _601  and  _602
REMARK  235  A    between atoms: _607  and  _608
REMARK  236  A    between atoms: _610  and  _612
REMARK  237  A    between atoms: _612  and  _613
REMARK  238  A    between atoms: _612  and  _615
REMARK  239  A    between atoms: _615  and  _616
REMARK  240  A    between atoms: _621  and  _622
REMARK  241  A    between atoms: _624  and  _626
REMARK  242  A    between atoms: _626  and  _627
REMARK  243  A    between atoms: _626  and  _629
REMARK  244  A    between atoms: _632  and  _634
REMARK  245  A    between atoms: _634  and  _635
REMARK  246  A    between atoms: _634  and  _637
REMARK  247  A    between atoms: _637  and  _638
REMARK  248  A    between atoms: _643  and  _645
REMARK  249  A    between atoms: _645  and  _646
REMARK  250  A    between atoms: _649  and  _651
REMARK  251  A    between atoms: _651  and  _652
REMARK  252  A    between atoms: _651  and  _654
REMARK  253  A    between atoms: _654  and  _655
REMARK  254  A    between atoms: _655  and  _656
REMARK  255  A    between atoms: _656  and  _657
REMARK  256  A    between atoms: _666  and  _668
REMARK  257  A    between atoms: _668  and  _669
REMARK  258  A    between atoms: _668  and  _671
REMARK  259  A    between atoms: _671  and  _672
REMARK  260  A    between atoms: _675  and  _677
REMARK  261  A    between atoms: _677  and  _678
REMARK  262  A    between atoms: _677  and  _680
REMARK  263  A    between atoms: _680  and  _681
REMARK  264  A    between atoms: _684  and  _686
REMARK  265  A    between atoms: _686  and  _687
REMARK  266  A    between atoms: _686  and  _689
REMARK  267  A    between atoms: _689  and  _690
REMARK                            x       y       z     vdW  Elec       q    Type
REMARK                         _______ _______ _______ _____ _____    ______ ____
ROOT
ATOM      1  O   HOH     1      -9.975  16.454  14.482  0.00  0.00    +0.000 OA
ENDROOT
TORSDOF 0
REMARK  Name = ../refined-set-2016/2olb/2olb_pocket.pdb
REMARK  267 active torsions:
REMARK  status: ('A' for Active; 'I' for Inactive)
REMARK    1  A    between atoms: _1  and  _3
REMARK    2  A    between atoms: _3  and  _4
REMARK    3  A    between atoms: _3  and  _6
REMARK    4  A    between atoms: _6  and  _7
REMARK    5  A    between atoms: _12  and  _14
REMARK    6  A    between atoms: _14  and  _15
REMARK    7  A    between atoms: _17  and  _19
REMARK    8  A    between atoms: _19  and  _20
REMARK    9  A    between atoms: _19  and  _22
REMARK   10  A    between atoms: _22  and  _23
REMARK   11  A    between atoms: _23  and  _24
REMARK   12  A    between atoms: _29  and  _31
REMARK   13  A    between atoms: _31  and  _32
REMARK   14  A    between atoms: _31  and  _34
REMARK   15  A    between atoms: _34  and  _35
REMARK   16  A    between atoms: _38  and  _40
REMARK   17  A    between atoms: _40  and  _41
REMARK   18  A    between atoms: _40  and  _43
REMARK   19  A    between atoms: _43  and  _44
REMARK   20  A    between atoms: _44  and  _45
REMARK   21  A    between atoms: _48  and  _50
REMARK   22  A    between atoms: _50  and  _51
REMARK   23  A    between atoms: _53  and  _55
REMARK   24  A    between atoms: _55  and  _56
REMARK   25  A    between atoms: _55  and  _58
REMARK   26  A    between atoms: _62  and  _63
REMARK   27  A    between atoms: _68  and  _70
REMARK   28  A    between atoms: _70  and  _71
REMARK   29  A    between atoms: _70  and  _73
REMARK   30  A    between atoms: _73  and  _74
REMARK   31  A    between atoms: _74  and  _75
REMARK   32  A    between atoms: _78  and  _80
REMARK   33  A    between atoms: _80  and  _81
REMARK   34  A    between atoms: _80  and  _83
REMARK   35  A    between atoms: _83  and  _84
REMARK   36  A    between atoms: _86  and  _88
REMARK   37  A    between atoms: _88  and  _89
REMARK   38  A    between atoms: _88  and  _91
REMARK   39  A    between atoms: _91  and  _92
REMARK   40  A    between atoms: _97  and  _99
REMARK   41  A    between atoms: _99  and  _100
REMARK   42  A    between atoms: _99  and  _102
REMARK   43  A    between atoms: _102  and  _103
REMARK   44  A    between atoms: _103  and  _104
REMARK   45  A    between atoms: _104  and  _105
REMARK   46  A    between atoms: _115  and  _116
REMARK   47  A    between atoms: _121  and  _123
REMARK   48  A    between atoms: _123  and  _124
REMARK   49  A    between atoms: _123  and  _126
REMARK   50  A    between atoms: _126  and  _127
REMARK   51  A    between atoms: _132  and  _133
REMARK   52  A    between atoms: _135  and  _137
REMARK   53  A    between atoms: _137  and  _138
REMARK   54  A    between atoms: _137  and  _140
REMARK   55  A    between atoms: _140  and  _141
REMARK   56  A    between atoms: _146  and  _147
REMARK   57  A    between atoms: _149  and  _151
REMARK   58  A    between atoms: _151  and  _152
REMARK   59  A    between atoms: _151  and  _154
REMARK   60  A    between atoms: _157  and  _159
REMARK   61  A    between atoms: _159  and  _160
REMARK   62  A    between atoms: _159  and  _162
REMARK   63  A    between atoms: _162  and  _163
REMARK   64  A    between atoms: _169  and  _170
REMARK   65  A    between atoms: _175  and  _177
REMARK   66  A    between atoms: _177  and  _178
REMARK   67  A    between atoms: _177  and  _180
REMARK   68  A    between atoms: _180  and  _181
REMARK   69  A    between atoms: _183  and  _185
REMARK   70  A    between atoms: _185  and  _186
REMARK   71  A    between atoms: _185  and  _188
REMARK   72  A    between atoms: _188  and  _189
REMARK   73  A    between atoms: _189  and  _190
REMARK   74  A    between atoms: _193  and  _195
REMARK   75  A    between atoms: _195  and  _196
REMARK   76  A    between atoms: _195  and  _198
REMARK   77  A    between atoms: _198  and  _199
REMARK   78  A    between atoms: _204  and  _205
REMARK   79  A    between atoms: _207  and  _209
REMARK   80  A    between atoms: _209  and  _210
REMARK   81  A    between atoms: _209  and  _212
REMARK   82  A    between atoms: _212  and  _213
REMARK   83  A    between atoms: _218  and  _220
REMARK   84  A    between atoms: _220  and  _221
REMARK   85  A    between atoms: _220  and  _223
REMARK   86  A    between atoms: _223  and  _224
REMARK   87  A    between atoms: _229  and  _231
REMARK   88  A    between atoms: _231  and  _232
REMARK   89  A    between atoms: _231  and  _234
REMARK   90  A    between atoms: _234  and  _235
REMARK   91  A    between atoms: _235  and  _236
REMARK   92  A    between atoms: _238  and  _240
REMARK   93  A    between atoms: _240  and  _241
REMARK   94  A    between atoms: _240  and  _243
REMARK   95  A    between atoms: _243  and  _244
REMARK   96  A    between atoms: _249  and  _250
REMARK   97  A    between atoms: _252  and  _254
REMARK   98  A    between atoms: _254  and  _255
REMARK   99  A    between atoms: _254  and  _257
REMARK  100  A    between atoms: _257  and  _258
REMARK  101  A    between atoms: _261  and  _263
REMARK  102  A    between atoms: _263  and  _264
REMARK  103  A    between atoms: _263  and  _266
REMARK  104  A    between atoms: _266  and  _267
REMARK  105  A    between atoms: _267  and  _484
REMARK  106  A    between atoms: _268  and  _270
REMARK  107  A    between atoms: _270  and  _271
REMARK  108  A    between atoms: _270  and  _273
REMARK  109  A    between atoms: _273  and  _274
REMARK  110  A    between atoms: _277  and  _279
REMARK  111  A    between atoms: _279  and  _280
REMARK  112  A    between atoms: _279  and  _282
REMARK  113  A    between atoms: _282  and  _283
REMARK  114  A    between atoms: _288  and  _289
REMARK  115  A    between atoms: _291  and  _293
REMARK  116  A    between atoms: _293  and  _294
REMARK  117  A    between atoms: _293  and  _296
REMARK  118  A    between atoms: _296  and  _297
REMARK  119  A    between atoms: _302  and  _303
REMARK  120  A    between atoms: _305  and  _307
REMARK  121  A    between atoms: _307  and  _308
REMARK  122  A    between atoms: _307  and  _310
REMARK  123  A    between atoms: _310  and  _311
REMARK  124  A    between atoms: _311  and  _312
REMARK  125  A    between atoms: _315  and  _317
REMARK  126  A    between atoms: _317  and  _318
REMARK  127  A    between atoms: _317  and  _320
REMARK  128  A    between atoms: _320  and  _321
REMARK  129  A    between atoms: _326  and  _327
REMARK  130  A    between atoms: _329  and  _331
REMARK  131  A    between atoms: _331  and  _332
REMARK  132  A    between atoms: _331  and  _334
REMARK  133  A    between atoms: _334  and  _335
REMARK  134  A    between atoms: _340  and  _342
REMARK  135  A    between atoms: _342  and  _343
REMARK  136  A    between atoms: _342  and  _345
REMARK  137  A    between atoms: _345  and  _346
REMARK  138  A    between atoms: _349  and  _351
REMARK  139  A    between atoms: _351  and  _352
REMARK  140  A    between atoms: _351  and  _354
REMARK  141  A    between atoms: _354  and  _355
REMARK  142  A    between atoms: _360  and  _362
REMARK  143  A    between atoms: _362  and  _363
REMARK  144  A    between atoms: _362  and  _365
REMARK  145  A    between atoms: _365  and  _366
REMARK  146  A    between atoms: _376  and  _378
REMARK  147  A    between atoms: _378  and  _379
REMARK  148  A    between atoms: _378  and  _381
REMARK  149  A    between atoms: _381  and  _382
REMARK  150  A    between atoms: _388  and  _390
REMARK  151  A    between atoms: _390  and  _391
REMARK  152  A    between atoms: _390  and  _393
REMARK  153  A    between atoms: _393  and  _394
REMARK  154  A    between atoms: _397  and  _399
REMARK  155  A    between atoms: _399  and  _400
REMARK  156  A    between atoms: _399  and  _402
REMARK  157  A    between atoms: _402  and  _403
REMARK  158  A    between atoms: _406  and  _408
REMARK  159  A    between atoms: _408  and  _409
REMARK  160  A    between atoms: _408  and  _411
REMARK  161  A    between atoms: _411  and  _412
REMARK  162  A    between atoms: _412  and  _413
REMARK  163  A    between atoms: _413  and  _414
REMARK  164  A    between atoms: _423  and  _425
REMARK  165  A    between atoms: _425  and  _426
REMARK  166  A    between atoms: _425  and  _428
REMARK  167  A    between atoms: _428  and  _429
REMARK  168  A    between atoms: _434  and  _436
REMARK  169  A    between atoms: _436  and  _437
REMARK  170  A    between atoms: _436  and  _439
REMARK  171  A    between atoms: _439  and  _440
REMARK  172  A    between atoms: _440  and  _441
REMARK  173  A    between atoms: _441  and  _442
REMARK  174  A    between atoms: _451  and  _453
REMARK  175  A    between atoms: _453  and  _454
REMARK  176  A    between atoms: _457  and  _459
REMARK  177  A    between atoms: _459  and  _460
REMARK  178  A    between atoms: _462  and  _464
REMARK  179  A    between atoms: _464  and  _465
REMARK  180  A    between atoms: _464  and  _467
REMARK  181  A    between atoms: _467  and  _468
REMARK  182  A    between atoms: _478  and  _480
REMARK  183  A    between atoms: _480  and  _481
REMARK  184  A    between atoms: _480  and  _483
REMARK  185  A    between atoms: _483  and  _484
REMARK  186  A    between atoms: _485  and  _487
REMARK  187  A    between atoms: _487  and  _488
REMARK  188  A    between atoms: _491  and  _493
REMARK  189  A    between atoms: _493  and  _494
REMARK  190  A    between atoms: _493  and  _496
REMARK  191  A    between atoms: _496  and  _497
REMARK  192  A    between atoms: _500  and  _502
REMARK  193  A    between atoms: _502  and  _503
REMARK  194  A    between atoms: _502  and  _505
REMARK  195  A    between atoms: _505  and  _506
REMARK  196  A    between atoms: _511  and  _512
REMARK  197  A    between atoms: _514  and  _516
REMARK  198  A    between atoms: _516  and  _517
REMARK  199  A    between atoms: _516  and  _519
REMARK  200  A    between atoms: _519  and  _520
REMARK  201  A    between atoms: _522  and  _524
REMARK  202  A    between atoms: _524  and  _525
REMARK  203  A    between atoms: _524  and  _527
REMARK  204  A    between atoms: _527  and  _528
REMARK  205  A    between atoms: _534  and  _536
REMARK  206  A    between atoms: _536  and  _537
REMARK  207  A    between atoms: _536  and  _539
REMARK  208  A    between atoms: _539  and  _540
REMARK  209  A    between atoms: _543  and  _545
REMARK  210  A    between atoms: _545  and  _546
REMARK  211  A    between atoms: _545  and  _548
REMARK  212  A    between atoms: _548  and  _549
REMARK  213  A    between atoms: _551  and  _553
REMARK  214  A    between atoms: _553  and  _554
REMARK  215  A    between atoms: _553  and  _556
REMARK  216  A    between atoms: _556  and  _557
REMARK  217  A    between atoms: _559  and  _561
REMARK  218  A    between atoms: _561  and  _562
REMARK  219  A    between atoms: _561  and  _564
REMARK  220  A    between atoms: _564  and  _565
REMARK  221  A    between atoms: _570  and  _572
REMARK  222  A    between atoms: _572  and  _573
REMARK  223  A    between atoms: _572  and  _575
REMARK  224  A    between atoms: _575  and  _576
REMARK  225  A    between atoms: _581  and  _583
REMARK  226  A    between atoms: _583  and  _584
REMARK  227  A    between atoms: _583  and  _586
REMARK  228  A    between atoms: _586  and  _587
REMARK  229  A    between atoms: _590  and  _592
REMARK  230  A    between atoms: _592  and  _593
REMARK  231  A    between atoms: _596  and  _598
REMARK  232  A    between atoms: _598  and  _599
REMARK  233  A    between atoms: _598  and  _601
REMARK  234  A    between atoms: _601  and  _602
REMARK  235  A    between atoms: _607  and  _608
REMARK  236  A    between atoms: _610  and  _612
REMARK  237  A    between atoms: _612  and  _613
REMARK  238  A    between atoms: _612  and  _615
REMARK  239  A    between atoms: _615  and  _616
REMARK  240  A    between atoms: _621  and  _622
REMARK  241  A    between atoms: _624  and  _626
REMARK  242  A    between atoms: _626  and  _627
REMARK  243  A    between atoms: _626  and  _629
REMARK  244  A    between atoms: _632  and  _634
REMARK  245  A    between atoms: _634  and  _635
REMARK  246  A    between atoms: _634  and  _637
REMARK  247  A    between atoms: _637  and  _638
REMARK  248  A    between atoms: _643  and  _645
REMARK  249  A    between atoms: _645  and  _646
REMARK  250  A    between atoms: _649  and  _651
REMARK  251  A    between atoms: _651  and  _652
REMARK  252  A    between atoms: _651  and  _654
REMARK  253  A    between atoms: _654  and  _655
REMARK  254  A    between atoms: _655  and  _656
REMARK  255  A    between atoms: _656  and  _657
REMARK  256  A    between atoms: _666  and  _668
REMARK  257  A    between atoms: _668  and  _669
REMARK  258  A    between atoms: _668  and  _671
REMARK  259  A    between atoms: _671  and  _672
REMARK  260  A    between atoms: _675  and  _677
REMARK  261  A    between atoms: _677  and  _678
REMARK  262  A    between atoms: _677  and  _680
REMARK  263  A    between atoms: _680  and  _681
REMARK  264  A    between atoms: _684  and  _686
REMARK  265  A    between atoms: _686  and  _687
REMARK  266  A    between atoms: _686  and  _689
REMARK  267  A    between atoms: _689  and  _690
REMARK                            x       y       z     vdW  Elec       q    Type
REMARK                         _______ _______ _______ _____ _____    ______ ____
ROOT
ATOM      1  O   HOH     1       9.016  26.909  15.805  0.00  0.00    +0.000 OA
ENDROOT
TORSDOF 0
REMARK  Name = ../refined-set-2016/2olb/2olb_pocket.pdb
REMARK  267 active torsions:
REMARK  status: ('A' for Active; 'I' for Inactive)
REMARK    1  A    between atoms: _1  and  _3
REMARK    2  A    between atoms: _3  and  _4
REMARK    3  A    between atoms: _3  and  _6
REMARK    4  A    between atoms: _6  and  _7
REMARK    5  A    between atoms: _12  and  _14
REMARK    6  A    between atoms: _14  and  _15
REMARK    7  A    between atoms: _17  and  _19
REMARK    8  A    between atoms: _19  and  _20
REMARK    9  A    between atoms: _19  and  _22
REMARK   10  A    between atoms: _22  and  _23
REMARK   11  A    between atoms: _23  and  _24
REMARK   12  A    between atoms: _29  and  _31
REMARK   13  A    between atoms: _31  and  _32
REMARK   14  A    between atoms: _31  and  _34
REMARK   15  A    between atoms: _34  and  _35
REMARK   16  A    between atoms: _38  and  _40
REMARK   17  A    between atoms: _40  and  _41
REMARK   18  A    between atoms: _40  and  _43
REMARK   19  A    between atoms: _43  and  _44
REMARK   20  A    between atoms: _44  and  _45
REMARK   21  A    between atoms: _48  and  _50
REMARK   22  A    between atoms: _50  and  _51
REMARK   23  A    between atoms: _53  and  _55
REMARK   24  A    between atoms: _55  and  _56
REMARK   25  A    between atoms: _55  and  _58
REMARK   26  A    between atoms: _62  and  _63
REMARK   27  A    between atoms: _68  and  _70
REMARK   28  A    between atoms: _70  and  _71
REMARK   29  A    between atoms: _70  and  _73
REMARK   30  A    between atoms: _73  and  _74
REMARK   31  A    between atoms: _74  and  _75
REMARK   32  A    between atoms: _78  and  _80
REMARK   33  A    between atoms: _80  and  _81
REMARK   34  A    between atoms: _80  and  _83
REMARK   35  A    between atoms: _83  and  _84
REMARK   36  A    between atoms: _86  and  _88
REMARK   37  A    between atoms: _88  and  _89
REMARK   38  A    between atoms: _88  and  _91
REMARK   39  A    between atoms: _91  and  _92
REMARK   40  A    between atoms: _97  and  _99
REMARK   41  A    between atoms: _99  and  _100
REMARK   42  A    between atoms: _99  and  _102
REMARK   43  A    between atoms: _102  and  _103
REMARK   44  A    between atoms: _103  and  _104
REMARK   45  A    between atoms: _104  and  _105
REMARK   46  A    between atoms: _115  and  _116
REMARK   47  A    between atoms: _121  and  _123
REMARK   48  A    between atoms: _123  and  _124
REMARK   49  A    between atoms: _123  and  _126
REMARK   50  A    between atoms: _126  and  _127
REMARK   51  A    between atoms: _132  and  _133
REMARK   52  A    between atoms: _135  and  _137
REMARK   53  A    between atoms: _137  and  _138
REMARK   54  A    between atoms: _137  and  _140
REMARK   55  A    between atoms: _140  and  _141
REMARK   56  A    between atoms: _146  and  _147
REMARK   57  A    between atoms: _149  and  _151
REMARK   58  A    between atoms: _151  and  _152
REMARK   59  A    between atoms: _151  and  _154
REMARK   60  A    between atoms: _157  and  _159
REMARK   61  A    between atoms: _159  and  _160
REMARK   62  A    between atoms: _159  and  _162
REMARK   63  A    between atoms: _162  and  _163
REMARK   64  A    between atoms: _169  and  _170
REMARK   65  A    between atoms: _175  and  _177
REMARK   66  A    between atoms: _177  and  _178
REMARK   67  A    between atoms: _177  and  _180
REMARK   68  A    between atoms: _180  and  _181
REMARK   69  A    between atoms: _183  and  _185
REMARK   70  A    between atoms: _185  and  _186
REMARK   71  A    between atoms: _185  and  _188
REMARK   72  A    between atoms: _188  and  _189
REMARK   73  A    between atoms: _189  and  _190
REMARK   74  A    between atoms: _193  and  _195
REMARK   75  A    between atoms: _195  and  _196
REMARK   76  A    between atoms: _195  and  _198
REMARK   77  A    between atoms: _198  and  _199
REMARK   78  A    between atoms: _204  and  _205
REMARK   79  A    between atoms: _207  and  _209
REMARK   80  A    between atoms: _209  and  _210
REMARK   81  A    between atoms: _209  and  _212
REMARK   82  A    between atoms: _212  and  _213
REMARK   83  A    between atoms: _218  and  _220
REMARK   84  A    between atoms: _220  and  _221
REMARK   85  A    between atoms: _220  and  _223
REMARK   86  A    between atoms: _223  and  _224
REMARK   87  A    between atoms: _229  and  _231
REMARK   88  A    between atoms: _231  and  _232
REMARK   89  A    between atoms: _231  and  _234
REMARK   90  A    between atoms: _234  and  _235
REMARK   91  A    between atoms: _235  and  _236
REMARK   92  A    between atoms: _238  and  _240
REMARK   93  A    between atoms: _240  and  _241
REMARK   94  A    between atoms: _240  and  _243
REMARK   95  A    between atoms: _243  and  _244
REMARK   96  A    between atoms: _249  and  _250
REMARK   97  A    between atoms: _252  and  _254
REMARK   98  A    between atoms: _254  and  _255
REMARK   99  A    between atoms: _254  and  _257
REMARK  100  A    between atoms: _257  and  _258
REMARK  101  A    between atoms: _261  and  _263
REMARK  102  A    between atoms: _263  and  _264
REMARK  103  A    between atoms: _263  and  _266
REMARK  104  A    between atoms: _266  and  _267
REMARK  105  A    between atoms: _267  and  _484
REMARK  106  A    between atoms: _268  and  _270
REMARK  107  A    between atoms: _270  and  _271
REMARK  108  A    between atoms: _270  and  _273
REMARK  109  A    between atoms: _273  and  _274
REMARK  110  A    between atoms: _277  and  _279
REMARK  111  A    between atoms: _279  and  _280
REMARK  112  A    between atoms: _279  and  _282
REMARK  113  A    between atoms: _282  and  _283
REMARK  114  A    between atoms: _288  and  _289
REMARK  115  A    between atoms: _291  and  _293
REMARK  116  A    between atoms: _293  and  _294
REMARK  117  A    between atoms: _293  and  _296
REMARK  118  A    between atoms: _296  and  _297
REMARK  119  A    between atoms: _302  and  _303
REMARK  120  A    between atoms: _305  and  _307
REMARK  121  A    between atoms: _307  and  _308
REMARK  122  A    between atoms: _307  and  _310
REMARK  123  A    between atoms: _310  and  _311
REMARK  124  A    between atoms: _311  and  _312
REMARK  125  A    between atoms: _315  and  _317
REMARK  126  A    between atoms: _317  and  _318
REMARK  127  A    between atoms: _317  and  _320
REMARK  128  A    between atoms: _320  and  _321
REMARK  129  A    between atoms: _326  and  _327
REMARK  130  A    between atoms: _329  and  _331
REMARK  131  A    between atoms: _331  and  _332
REMARK  132  A    between atoms: _331  and  _334
REMARK  133  A    between atoms: _334  and  _335
REMARK  134  A    between atoms: _340  and  _342
REMARK  135  A    between atoms: _342  and  _343
REMARK  136  A    between atoms: _342  and  _345
REMARK  137  A    between atoms: _345  and  _346
REMARK  138  A    between atoms: _349  and  _351
REMARK  139  A    between atoms: _351  and  _352
REMARK  140  A    between atoms: _351  and  _354
REMARK  141  A    between atoms: _354  and  _355
REMARK  142  A    between atoms: _360  and  _362
REMARK  143  A    between atoms: _362  and  _363
REMARK  144  A    between atoms: _362  and  _365
REMARK  145  A    between atoms: _365  and  _366
REMARK  146  A    between atoms: _376  and  _378
REMARK  147  A    between atoms: _378  and  _379
REMARK  148  A    between atoms: _378  and  _381
REMARK  149  A    between atoms: _381  and  _382
REMARK  150  A    between atoms: _388  and  _390
REMARK  151  A    between atoms: _390  and  _391
REMARK  152  A    between atoms: _390  and  _393
REMARK  153  A    between atoms: _393  and  _394
REMARK  154  A    between atoms: _397  and  _399
REMARK  155  A    between atoms: _399  and  _400
REMARK  156  A    between atoms: _399  and  _402
REMARK  157  A    between atoms: _402  and  _403
REMARK  158  A    between atoms: _406  and  _408
REMARK  159  A    between atoms: _408  and  _409
REMARK  160  A    between atoms: _408  and  _411
REMARK  161  A    between atoms: _411  and  _412
REMARK  162  A    between atoms: _412  and  _413
REMARK  163  A    between atoms: _413  and  _414
REMARK  164  A    between atoms: _423  and  _425
REMARK  165  A    between atoms: _425  and  _426
REMARK  166  A    between atoms: _425  and  _428
REMARK  167  A    between atoms: _428  and  _429
REMARK  168  A    between atoms: _434  and  _436
REMARK  169  A    between atoms: _436  and  _437
REMARK  170  A    between atoms: _436  and  _439
REMARK  171  A    between atoms: _439  and  _440
REMARK  172  A    between atoms: _440  and  _441
REMARK  173  A    between atoms: _441  and  _442
REMARK  174  A    between atoms: _451  and  _453
REMARK  175  A    between atoms: _453  and  _454
REMARK  176  A    between atoms: _457  and  _459
REMARK  177  A    between atoms: _459  and  _460
REMARK  178  A    between atoms: _462  and  _464
REMARK  179  A    between atoms: _464  and  _465
REMARK  180  A    between atoms: _464  and  _467
REMARK  181  A    between atoms: _467  and  _468
REMARK  182  A    between atoms: _478  and  _480
REMARK  183  A    between atoms: _480  and  _481
REMARK  184  A    between atoms: _480  and  _483
REMARK  185  A    between atoms: _483  and  _484
REMARK  186  A    between atoms: _485  and  _487
REMARK  187  A    between atoms: _487  and  _488
REMARK  188  A    between atoms: _491  and  _493
REMARK  189  A    between atoms: _493  and  _494
REMARK  190  A    between atoms: _493  and  _496
REMARK  191  A    between atoms: _496  and  _497
REMARK  192  A    between atoms: _500  and  _502
REMARK  193  A    between atoms: _502  and  _503
REMARK  194  A    between atoms: _502  and  _505
REMARK  195  A    between atoms: _505  and  _506
REMARK  196  A    between atoms: _511  and  _512
REMARK  197  A    between atoms: _514  and  _516
REMARK  198  A    between atoms: _516  and  _517
REMARK  199  A    between atoms: _516  and  _519
REMARK  200  A    between atoms: _519  and  _520
REMARK  201  A    between atoms: _522  and  _524
REMARK  202  A    between atoms: _524  and  _525
REMARK  203  A    between atoms: _524  and  _527
REMARK  204  A    between atoms: _527  and  _528
REMARK  205  A    between atoms: _534  and  _536
REMARK  206  A    between atoms: _536  and  _537
REMARK  207  A    between atoms: _536  and  _539
REMARK  208  A    between atoms: _539  and  _540
REMARK  209  A    between atoms: _543  and  _545
REMARK  210  A    between atoms: _545  and  _546
REMARK  211  A    between atoms: _545  and  _548
REMARK  212  A    between atoms: _548  and  _549
REMARK  213  A    between atoms: _551  and  _553
REMARK  214  A    between atoms: _553  and  _554
REMARK  215  A    between atoms: _553  and  _556
REMARK  216  A    between atoms: _556  and  _557
REMARK  217  A    between atoms: _559  and  _561
REMARK  218  A    between atoms: _561  and  _562
REMARK  219  A    between atoms: _561  and  _564
REMARK  220  A    between atoms: _564  and  _565
REMARK  221  A    between atoms: _570  and  _572
REMARK  222  A    between atoms: _572  and  _573
REMARK  223  A    between atoms: _572  and  _575
REMARK  224  A    between atoms: _575  and  _576
REMARK  225  A    between atoms: _581  and  _583
REMARK  226  A    between atoms: _583  and  _584
REMARK  227  A    between atoms: _583  and  _586
REMARK  228  A    between atoms: _586  and  _587
REMARK  229  A    between atoms: _590  and  _592
REMARK  230  A    between atoms: _592  and  _593
REMARK  231  A    between atoms: _596  and  _598
REMARK  232  A    between atoms: _598  and  _599
REMARK  233  A    between atoms: _598  and  _601
REMARK  234  A    between atoms: _601  and  _602
REMARK  235  A    between atoms: _607  and  _608
REMARK  236  A    between atoms: _610  and  _612
REMARK  237  A    between atoms: _612  and  _613
REMARK  238  A    between atoms: _612  and  _615
REMARK  239  A    between atoms: _615  and  _616
REMARK  240  A    between atoms: _621  and  _622
REMARK  241  A    between atoms: _624  and  _626
REMARK  242  A    between atoms: _626  and  _627
REMARK  243  A    between atoms: _626  and  _629
REMARK  244  A    between atoms: _632  and  _634
REMARK  245  A    between atoms: _634  and  _635
REMARK  246  A    between atoms: _634  and  _637
REMARK  247  A    between atoms: _637  and  _638
REMARK  248  A    between atoms: _643  and  _645
REMARK  249  A    between atoms: _645  and  _646
REMARK  250  A    between atoms: _649  and  _651
REMARK  251  A    between atoms: _651  and  _652
REMARK  252  A    between atoms: _651  and  _654
REMARK  253  A    between atoms: _654  and  _655
REMARK  254  A    between atoms: _655  and  _656
REMARK  255  A    between atoms: _656  and  _657
REMARK  256  A    between atoms: _666  and  _668
REMARK  257  A    between atoms: _668  and  _669
REMARK  258  A    between atoms: _668  and  _671
REMARK  259  A    between atoms: _671  and  _672
REMARK  260  A    between atoms: _675  and  _677
REMARK  261  A    between atoms: _677  and  _678
REMARK  262  A    between atoms: _677  and  _680
REMARK  263  A    between atoms: _680  and  _681
REMARK  264  A    between atoms: _684  and  _686
REMARK  265  A    between atoms: _686  and  _687
REMARK  266  A    between atoms: _686  and  _689
REMARK  267  A    between atoms: _689  and  _690
REMARK                            x       y       z     vdW  Elec       q    Type
REMARK                         _______ _______ _______ _____ _____    ______ ____
ROOT
ATOM      1  O   HOH     1      -4.947  25.716  12.226  0.00  0.00    +0.000 OA
ENDROOT
TORSDOF 0
REMARK  Name = ../refined-set-2016/2olb/2olb_pocket.pdb
REMARK  267 active torsions:
REMARK  status: ('A' for Active; 'I' for Inactive)
REMARK    1  A    between atoms: _1  and  _3
REMARK    2  A    between atoms: _3  and  _4
REMARK    3  A    between atoms: _3  and  _6
REMARK    4  A    between atoms: _6  and  _7
REMARK    5  A    between atoms: _12  and  _14
REMARK    6  A    between atoms: _14  and  _15
REMARK    7  A    between atoms: _17  and  _19
REMARK    8  A    between atoms: _19  and  _20
REMARK    9  A    between atoms: _19  and  _22
REMARK   10  A    between atoms: _22  and  _23
REMARK   11  A    between atoms: _23  and  _24
REMARK   12  A    between atoms: _29  and  _31
REMARK   13  A    between atoms: _31  and  _32
REMARK   14  A    between atoms: _31  and  _34
REMARK   15  A    between atoms: _34  and  _35
REMARK   16  A    between atoms: _38  and  _40
REMARK   17  A    between atoms: _40  and  _41
REMARK   18  A    between atoms: _40  and  _43
REMARK   19  A    between atoms: _43  and  _44
REMARK   20  A    between atoms: _44  and  _45
REMARK   21  A    between atoms: _48  and  _50
REMARK   22  A    between atoms: _50  and  _51
REMARK   23  A    between atoms: _53  and  _55
REMARK   24  A    between atoms: _55  and  _56
REMARK   25  A    between atoms: _55  and  _58
REMARK   26  A    between atoms: _62  and  _63
REMARK   27  A    between atoms: _68  and  _70
REMARK   28  A    between atoms: _70  and  _71
REMARK   29  A    between atoms: _70  and  _73
REMARK   30  A    between atoms: _73  and  _74
REMARK   31  A    between atoms: _74  and  _75
REMARK   32  A    between atoms: _78  and  _80
REMARK   33  A    between atoms: _80  and  _81
REMARK   34  A    between atoms: _80  and  _83
REMARK   35  A    between atoms: _83  and  _84
REMARK   36  A    between atoms: _86  and  _88
REMARK   37  A    between atoms: _88  and  _89
REMARK   38  A    between atoms: _88  and  _91
REMARK   39  A    between atoms: _91  and  _92
REMARK   40  A    between atoms: _97  and  _99
REMARK   41  A    between atoms: _99  and  _100
REMARK   42  A    between atoms: _99  and  _102
REMARK   43  A    between atoms: _102  and  _103
REMARK   44  A    between atoms: _103  and  _104
REMARK   45  A    between atoms: _104  and  _105
REMARK   46  A    between atoms: _115  and  _116
REMARK   47  A    between atoms: _121  and  _123
REMARK   48  A    between atoms: _123  and  _124
REMARK   49  A    between atoms: _123  and  _126
REMARK   50  A    between atoms: _126  and  _127
REMARK   51  A    between atoms: _132  and  _133
REMARK   52  A    between atoms: _135  and  _137
REMARK   53  A    between atoms: _137  and  _138
REMARK   54  A    between atoms: _137  and  _140
REMARK   55  A    between atoms: _140  and  _141
REMARK   56  A    between atoms: _146  and  _147
REMARK   57  A    between atoms: _149  and  _151
REMARK   58  A    between atoms: _151  and  _152
REMARK   59  A    between atoms: _151  and  _154
REMARK   60  A    between atoms: _157  and  _159
REMARK   61  A    between atoms: _159  and  _160
REMARK   62  A    between atoms: _159  and  _162
REMARK   63  A    between atoms: _162  and  _163
REMARK   64  A    between atoms: _169  and  _170
REMARK   65  A    between atoms: _175  and  _177
REMARK   66  A    between atoms: _177  and  _178
REMARK   67  A    between atoms: _177  and  _180
REMARK   68  A    between atoms: _180  and  _181
REMARK   69  A    between atoms: _183  and  _185
REMARK   70  A    between atoms: _185  and  _186
REMARK   71  A    between atoms: _185  and  _188
REMARK   72  A    between atoms: _188  and  _189
REMARK   73  A    between atoms: _189  and  _190
REMARK   74  A    between atoms: _193  and  _195
REMARK   75  A    between atoms: _195  and  _196
REMARK   76  A    between atoms: _195  and  _198
REMARK   77  A    between atoms: _198  and  _199
REMARK   78  A    between atoms: _204  and  _205
REMARK   79  A    between atoms: _207  and  _209
REMARK   80  A    between atoms: _209  and  _210
REMARK   81  A    between atoms: _209  and  _212
REMARK   82  A    between atoms: _212  and  _213
REMARK   83  A    between atoms: _218  and  _220
REMARK   84  A    between atoms: _220  and  _221
REMARK   85  A    between atoms: _220  and  _223
REMARK   86  A    between atoms: _223  and  _224
REMARK   87  A    between atoms: _229  and  _231
REMARK   88  A    between atoms: _231  and  _232
REMARK   89  A    between atoms: _231  and  _234
REMARK   90  A    between atoms: _234  and  _235
REMARK   91  A    between atoms: _235  and  _236
REMARK   92  A    between atoms: _238  and  _240
REMARK   93  A    between atoms: _240  and  _241
REMARK   94  A    between atoms: _240  and  _243
REMARK   95  A    between atoms: _243  and  _244
REMARK   96  A    between atoms: _249  and  _250
REMARK   97  A    between atoms: _252  and  _254
REMARK   98  A    between atoms: _254  and  _255
REMARK   99  A    between atoms: _254  and  _257
REMARK  100  A    between atoms: _257  and  _258
REMARK  101  A    between atoms: _261  and  _263
REMARK  102  A    between atoms: _263  and  _264
REMARK  103  A    between atoms: _263  and  _266
REMARK  104  A    between atoms: _266  and  _267
REMARK  105  A    between atoms: _267  and  _484
REMARK  106  A    between atoms: _268  and  _270
REMARK  107  A    between atoms: _270  and  _271
REMARK  108  A    between atoms: _270  and  _273
REMARK  109  A    between atoms: _273  and  _274
REMARK  110  A    between atoms: _277  and  _279
REMARK  111  A    between atoms: _279  and  _280
REMARK  112  A    between atoms: _279  and  _282
REMARK  113  A    between atoms: _282  and  _283
REMARK  114  A    between atoms: _288  and  _289
REMARK  115  A    between atoms: _291  and  _293
REMARK  116  A    between atoms: _293  and  _294
REMARK  117  A    between atoms: _293  and  _296
REMARK  118  A    between atoms: _296  and  _297
REMARK  119  A    between atoms: _302  and  _303
REMARK  120  A    between atoms: _305  and  _307
REMARK  121  A    between atoms: _307  and  _308
REMARK  122  A    between atoms: _307  and  _310
REMARK  123  A    between atoms: _310  and  _311
REMARK  124  A    between atoms: _311  and  _312
REMARK  125  A    between atoms: _315  and  _317
REMARK  126  A    between atoms: _317  and  _318
REMARK  127  A    between atoms: _317  and  _320
REMARK  128  A    between atoms: _320  and  _321
REMARK  129  A    between atoms: _326  and  _327
REMARK  130  A    between atoms: _329  and  _331
REMARK  131  A    between atoms: _331  and  _332
REMARK  132  A    between atoms: _331  and  _334
REMARK  133  A    between atoms: _334  and  _335
REMARK  134  A    between atoms: _340  and  _342
REMARK  135  A    between atoms: _342  and  _343
REMARK  136  A    between atoms: _342  and  _345
REMARK  137  A    between atoms: _345  and  _346
REMARK  138  A    between atoms: _349  and  _351
REMARK  139  A    between atoms: _351  and  _352
REMARK  140  A    between atoms: _351  and  _354
REMARK  141  A    between atoms: _354  and  _355
REMARK  142  A    between atoms: _360  and  _362
REMARK  143  A    between atoms: _362  and  _363
REMARK  144  A    between atoms: _362  and  _365
REMARK  145  A    between atoms: _365  and  _366
REMARK  146  A    between atoms: _376  and  _378
REMARK  147  A    between atoms: _378  and  _379
REMARK  148  A    between atoms: _378  and  _381
REMARK  149  A    between atoms: _381  and  _382
REMARK  150  A    between atoms: _388  and  _390
REMARK  151  A    between atoms: _390  and  _391
REMARK  152  A    between atoms: _390  and  _393
REMARK  153  A    between atoms: _393  and  _394
REMARK  154  A    between atoms: _397  and  _399
REMARK  155  A    between atoms: _399  and  _400
REMARK  156  A    between atoms: _399  and  _402
REMARK  157  A    between atoms: _402  and  _403
REMARK  158  A    between atoms: _406  and  _408
REMARK  159  A    between atoms: _408  and  _409
REMARK  160  A    between atoms: _408  and  _411
REMARK  161  A    between atoms: _411  and  _412
REMARK  162  A    between atoms: _412  and  _413
REMARK  163  A    between atoms: _413  and  _414
REMARK  164  A    between atoms: _423  and  _425
REMARK  165  A    between atoms: _425  and  _426
REMARK  166  A    between atoms: _425  and  _428
REMARK  167  A    between atoms: _428  and  _429
REMARK  168  A    between atoms: _434  and  _436
REMARK  169  A    between atoms: _436  and  _437
REMARK  170  A    between atoms: _436  and  _439
REMARK  171  A    between atoms: _439  and  _440
REMARK  172  A    between atoms: _440  and  _441
REMARK  173  A    between atoms: _441  and  _442
REMARK  174  A    between atoms: _451  and  _453
REMARK  175  A    between atoms: _453  and  _454
REMARK  176  A    between atoms: _457  and  _459
REMARK  177  A    between atoms: _459  and  _460
REMARK  178  A    between atoms: _462  and  _464
REMARK  179  A    between atoms: _464  and  _465
REMARK  180  A    between atoms: _464  and  _467
REMARK  181  A    between atoms: _467  and  _468
REMARK  182  A    between atoms: _478  and  _480
REMARK  183  A    between atoms: _480  and  _481
REMARK  184  A    between atoms: _480  and  _483
REMARK  185  A    between atoms: _483  and  _484
REMARK  186  A    between atoms: _485  and  _487
REMARK  187  A    between atoms: _487  and  _488
REMARK  188  A    between atoms: _491  and  _493
REMARK  189  A    between atoms: _493  and  _494
REMARK  190  A    between atoms: _493  and  _496
REMARK  191  A    between atoms: _496  and  _497
REMARK  192  A    between atoms: _500  and  _502
REMARK  193  A    between atoms: _502  and  _503
REMARK  194  A    between atoms: _502  and  _505
REMARK  195  A    between atoms: _505  and  _506
REMARK  196  A    between atoms: _511  and  _512
REMARK  197  A    between atoms: _514  and  _516
REMARK  198  A    between atoms: _516  and  _517
REMARK  199  A    between atoms: _516  and  _519
REMARK  200  A    between atoms: _519  and  _520
REMARK  201  A    between atoms: _522  and  _524
REMARK  202  A    between atoms: _524  and  _525
REMARK  203  A    between atoms: _524  and  _527
REMARK  204  A    between atoms: _527  and  _528
REMARK  205  A    between atoms: _534  and  _536
REMARK  206  A    between atoms: _536  and  _537
REMARK  207  A    between atoms: _536  and  _539
REMARK  208  A    between atoms: _539  and  _540
REMARK  209  A    between atoms: _543  and  _545
REMARK  210  A    between atoms: _545  and  _546
REMARK  211  A    between atoms: _545  and  _548
REMARK  212  A    between atoms: _548  and  _549
REMARK  213  A    between atoms: _551  and  _553
REMARK  214  A    between atoms: _553  and  _554
REMARK  215  A    between atoms: _553  and  _556
REMARK  216  A    between atoms: _556  and  _557
REMARK  217  A    between atoms: _559  and  _561
REMARK  218  A    between atoms: _561  and  _562
REMARK  219  A    between atoms: _561  and  _564
REMARK  220  A    between atoms: _564  and  _565
REMARK  221  A    between atoms: _570  and  _572
REMARK  222  A    between atoms: _572  and  _573
REMARK  223  A    between atoms: _572  and  _575
REMARK  224  A    between atoms: _575  and  _576
REMARK  225  A    between atoms: _581  and  _583
REMARK  226  A    between atoms: _583  and  _584
REMARK  227  A    between atoms: _583  and  _586
REMARK  228  A    between atoms: _586  and  _587
REMARK  229  A    between atoms: _590  and  _592
REMARK  230  A    between atoms: _592  and  _593
REMARK  231  A    between atoms: _596  and  _598
REMARK  232  A    between atoms: _598  and  _599
REMARK  233  A    between atoms: _598  and  _601
REMARK  234  A    between atoms: _601  and  _602
REMARK  235  A    between atoms: _607  and  _608
REMARK  236  A    between atoms: _610  and  _612
REMARK  237  A    between atoms: _612  and  _613
REMARK  238  A    between atoms: _612  and  _615
REMARK  239  A    between atoms: _615  and  _616
REMARK  240  A    between atoms: _621  and  _622
REMARK  241  A    between atoms: _624  and  _626
REMARK  242  A    between atoms: _626  and  _627
REMARK  243  A    between atoms: _626  and  _629
REMARK  244  A    between atoms: _632  and  _634
REMARK  245  A    between atoms: _634  and  _635
REMARK  246  A    between atoms: _634  and  _637
REMARK  247  A    between atoms: _637  and  _638
REMARK  248  A    between atoms: _643  and  _645
REMARK  249  A    between atoms: _645  and  _646
REMARK  250  A    between atoms: _649  and  _651
REMARK  251  A    between atoms: _651  and  _652
REMARK  252  A    between atoms: _651  and  _654
REMARK  253  A    between atoms: _654  and  _655
REMARK  254  A    between atoms: _655  and  _656
REMARK  255  A    between atoms: _656  and  _657
REMARK  256  A    between atoms: _666  and  _668
REMARK  257  A    between atoms: _668  and  _669
REMARK  258  A    between atoms: _668  and  _671
REMARK  259  A    between atoms: _671  and  _672
REMARK  260  A    between atoms: _675  and  _677
REMARK  261  A    between atoms: _677  and  _678
REMARK  262  A    between atoms: _677  and  _680
REMARK  263  A    between atoms: _680  and  _681
REMARK  264  A    between atoms: _684  and  _686
REMARK  265  A    between atoms: _686  and  _687
REMARK  266  A    between atoms: _686  and  _689
REMARK  267  A    between atoms: _689  and  _690
REMARK                            x       y       z     vdW  Elec       q    Type
REMARK                         _______ _______ _______ _____ _____    ______ ____
ROOT
ATOM      1  O   HOH     1      -2.144  17.707   7.946  0.00  0.00    +0.000 OA
ENDROOT
TORSDOF 0
REMARK  Name = ../refined-set-2016/2olb/2olb_pocket.pdb
REMARK  267 active torsions:
REMARK  status: ('A' for Active; 'I' for Inactive)
REMARK    1  A    between atoms: _1  and  _3
REMARK    2  A    between atoms: _3  and  _4
REMARK    3  A    between atoms: _3  and  _6
REMARK    4  A    between atoms: _6  and  _7
REMARK    5  A    between atoms: _12  and  _14
REMARK    6  A    between atoms: _14  and  _15
REMARK    7  A    between atoms: _17  and  _19
REMARK    8  A    between atoms: _19  and  _20
REMARK    9  A    between atoms: _19  and  _22
REMARK   10  A    between atoms: _22  and  _23
REMARK   11  A    between atoms: _23  and  _24
REMARK   12  A    between atoms: _29  and  _31
REMARK   13  A    between atoms: _31  and  _32
REMARK   14  A    between atoms: _31  and  _34
REMARK   15  A    between atoms: _34  and  _35
REMARK   16  A    between atoms: _38  and  _40
REMARK   17  A    between atoms: _40  and  _41
REMARK   18  A    between atoms: _40  and  _43
REMARK   19  A    between atoms: _43  and  _44
REMARK   20  A    between atoms: _44  and  _45
REMARK   21  A    between atoms: _48  and  _50
REMARK   22  A    between atoms: _50  and  _51
REMARK   23  A    between atoms: _53  and  _55
REMARK   24  A    between atoms: _55  and  _56
REMARK   25  A    between atoms: _55  and  _58
REMARK   26  A    between atoms: _62  and  _63
REMARK   27  A    between atoms: _68  and  _70
REMARK   28  A    between atoms: _70  and  _71
REMARK   29  A    between atoms: _70  and  _73
REMARK   30  A    between atoms: _73  and  _74
REMARK   31  A    between atoms: _74  and  _75
REMARK   32  A    between atoms: _78  and  _80
REMARK   33  A    between atoms: _80  and  _81
REMARK   34  A    between atoms: _80  and  _83
REMARK   35  A    between atoms: _83  and  _84
REMARK   36  A    between atoms: _86  and  _88
REMARK   37  A    between atoms: _88  and  _89
REMARK   38  A    between atoms: _88  and  _91
REMARK   39  A    between atoms: _91  and  _92
REMARK   40  A    between atoms: _97  and  _99
REMARK   41  A    between atoms: _99  and  _100
REMARK   42  A    between atoms: _99  and  _102
REMARK   43  A    between atoms: _102  and  _103
REMARK   44  A    between atoms: _103  and  _104
REMARK   45  A    between atoms: _104  and  _105
REMARK   46  A    between atoms: _115  and  _116
REMARK   47  A    between atoms: _121  and  _123
REMARK   48  A    between atoms: _123  and  _124
REMARK   49  A    between atoms: _123  and  _126
REMARK   50  A    between atoms: _126  and  _127
REMARK   51  A    between atoms: _132  and  _133
REMARK   52  A    between atoms: _135  and  _137
REMARK   53  A    between atoms: _137  and  _138
REMARK   54  A    between atoms: _137  and  _140
REMARK   55  A    between atoms: _140  and  _141
REMARK   56  A    between atoms: _146  and  _147
REMARK   57  A    between atoms: _149  and  _151
REMARK   58  A    between atoms: _151  and  _152
REMARK   59  A    between atoms: _151  and  _154
REMARK   60  A    between atoms: _157  and  _159
REMARK   61  A    between atoms: _159  and  _160
REMARK   62  A    between atoms: _159  and  _162
REMARK   63  A    between atoms: _162  and  _163
REMARK   64  A    between atoms: _169  and  _170
REMARK   65  A    between atoms: _175  and  _177
REMARK   66  A    between atoms: _177  and  _178
REMARK   67  A    between atoms: _177  and  _180
REMARK   68  A    between atoms: _180  and  _181
REMARK   69  A    between atoms: _183  and  _185
REMARK   70  A    between atoms: _185  and  _186
REMARK   71  A    between atoms: _185  and  _188
REMARK   72  A    between atoms: _188  and  _189
REMARK   73  A    between atoms: _189  and  _190
REMARK   74  A    between atoms: _193  and  _195
REMARK   75  A    between atoms: _195  and  _196
REMARK   76  A    between atoms: _195  and  _198
REMARK   77  A    between atoms: _198  and  _199
REMARK   78  A    between atoms: _204  and  _205
REMARK   79  A    between atoms: _207  and  _209
REMARK   80  A    between atoms: _209  and  _210
REMARK   81  A    between atoms: _209  and  _212
REMARK   82  A    between atoms: _212  and  _213
REMARK   83  A    between atoms: _218  and  _220
REMARK   84  A    between atoms: _220  and  _221
REMARK   85  A    between atoms: _220  and  _223
REMARK   86  A    between atoms: _223  and  _224
REMARK   87  A    between atoms: _229  and  _231
REMARK   88  A    between atoms: _231  and  _232
REMARK   89  A    between atoms: _231  and  _234
REMARK   90  A    between atoms: _234  and  _235
REMARK   91  A    between atoms: _235  and  _236
REMARK   92  A    between atoms: _238  and  _240
REMARK   93  A    between atoms: _240  and  _241
REMARK   94  A    between atoms: _240  and  _243
REMARK   95  A    between atoms: _243  and  _244
REMARK   96  A    between atoms: _249  and  _250
REMARK   97  A    between atoms: _252  and  _254
REMARK   98  A    between atoms: _254  and  _255
REMARK   99  A    between atoms: _254  and  _257
REMARK  100  A    between atoms: _257  and  _258
REMARK  101  A    between atoms: _261  and  _263
REMARK  102  A    between atoms: _263  and  _264
REMARK  103  A    between atoms: _263  and  _266
REMARK  104  A    between atoms: _266  and  _267
REMARK  105  A    between atoms: _267  and  _484
REMARK  106  A    between atoms: _268  and  _270
REMARK  107  A    between atoms: _270  and  _271
REMARK  108  A    between atoms: _270  and  _273
REMARK  109  A    between atoms: _273  and  _274
REMARK  110  A    between atoms: _277  and  _279
REMARK  111  A    between atoms: _279  and  _280
REMARK  112  A    between atoms: _279  and  _282
REMARK  113  A    between atoms: _282  and  _283
REMARK  114  A    between atoms: _288  and  _289
REMARK  115  A    between atoms: _291  and  _293
REMARK  116  A    between atoms: _293  and  _294
REMARK  117  A    between atoms: _293  and  _296
REMARK  118  A    between atoms: _296  and  _297
REMARK  119  A    between atoms: _302  and  _303
REMARK  120  A    between atoms: _305  and  _307
REMARK  121  A    between atoms: _307  and  _308
REMARK  122  A    between atoms: _307  and  _310
REMARK  123  A    between atoms: _310  and  _311
REMARK  124  A    between atoms: _311  and  _312
REMARK  125  A    between atoms: _315  and  _317
REMARK  126  A    between atoms: _317  and  _318
REMARK  127  A    between atoms: _317  and  _320
REMARK  128  A    between atoms: _320  and  _321
REMARK  129  A    between atoms: _326  and  _327
REMARK  130  A    between atoms: _329  and  _331
REMARK  131  A    between atoms: _331  and  _332
REMARK  132  A    between atoms: _331  and  _334
REMARK  133  A    between atoms: _334  and  _335
REMARK  134  A    between atoms: _340  and  _342
REMARK  135  A    between atoms: _342  and  _343
REMARK  136  A    between atoms: _342  and  _345
REMARK  137  A    between atoms: _345  and  _346
REMARK  138  A    between atoms: _349  and  _351
REMARK  139  A    between atoms: _351  and  _352
REMARK  140  A    between atoms: _351  and  _354
REMARK  141  A    between atoms: _354  and  _355
REMARK  142  A    between atoms: _360  and  _362
REMARK  143  A    between atoms: _362  and  _363
REMARK  144  A    between atoms: _362  and  _365
REMARK  145  A    between atoms: _365  and  _366
REMARK  146  A    between atoms: _376  and  _378
REMARK  147  A    between atoms: _378  and  _379
REMARK  148  A    between atoms: _378  and  _381
REMARK  149  A    between atoms: _381  and  _382
REMARK  150  A    between atoms: _388  and  _390
REMARK  151  A    between atoms: _390  and  _391
REMARK  152  A    between atoms: _390  and  _393
REMARK  153  A    between atoms: _393  and  _394
REMARK  154  A    between atoms: _397  and  _399
REMARK  155  A    between atoms: _399  and  _400
REMARK  156  A    between atoms: _399  and  _402
REMARK  157  A    between atoms: _402  and  _403
REMARK  158  A    between atoms: _406  and  _408
REMARK  159  A    between atoms: _408  and  _409
REMARK  160  A    between atoms: _408  and  _411
REMARK  161  A    between atoms: _411  and  _412
REMARK  162  A    between atoms: _412  and  _413
REMARK  163  A    between atoms: _413  and  _414
REMARK  164  A    between atoms: _423  and  _425
REMARK  165  A    between atoms: _425  and  _426
REMARK  166  A    between atoms: _425  and  _428
REMARK  167  A    between atoms: _428  and  _429
REMARK  168  A    between atoms: _434  and  _436
REMARK  169  A    between atoms: _436  and  _437
REMARK  170  A    between atoms: _436  and  _439
REMARK  171  A    between atoms: _439  and  _440
REMARK  172  A    between atoms: _440  and  _441
REMARK  173  A    between atoms: _441  and  _442
REMARK  174  A    between atoms: _451  and  _453
REMARK  175  A    between atoms: _453  and  _454
REMARK  176  A    between atoms: _457  and  _459
REMARK  177  A    between atoms: _459  and  _460
REMARK  178  A    between atoms: _462  and  _464
REMARK  179  A    between atoms: _464  and  _465
REMARK  180  A    between atoms: _464  and  _467
REMARK  181  A    between atoms: _467  and  _468
REMARK  182  A    between atoms: _478  and  _480
REMARK  183  A    between atoms: _480  and  _481
REMARK  184  A    between atoms: _480  and  _483
REMARK  185  A    between atoms: _483  and  _484
REMARK  186  A    between atoms: _485  and  _487
REMARK  187  A    between atoms: _487  and  _488
REMARK  188  A    between atoms: _491  and  _493
REMARK  189  A    between atoms: _493  and  _494
REMARK  190  A    between atoms: _493  and  _496
REMARK  191  A    between atoms: _496  and  _497
REMARK  192  A    between atoms: _500  and  _502
REMARK  193  A    between atoms: _502  and  _503
REMARK  194  A    between atoms: _502  and  _505
REMARK  195  A    between atoms: _505  and  _506
REMARK  196  A    between atoms: _511  and  _512
REMARK  197  A    between atoms: _514  and  _516
REMARK  198  A    between atoms: _516  and  _517
REMARK  199  A    between atoms: _516  and  _519
REMARK  200  A    between atoms: _519  and  _520
REMARK  201  A    between atoms: _522  and  _524
REMARK  202  A    between atoms: _524  and  _525
REMARK  203  A    between atoms: _524  and  _527
REMARK  204  A    between atoms: _527  and  _528
REMARK  205  A    between atoms: _534  and  _536
REMARK  206  A    between atoms: _536  and  _537
REMARK  207  A    between atoms: _536  and  _539
REMARK  208  A    between atoms: _539  and  _540
REMARK  209  A    between atoms: _543  and  _545
REMARK  210  A    between atoms: _545  and  _546
REMARK  211  A    between atoms: _545  and  _548
REMARK  212  A    between atoms: _548  and  _549
REMARK  213  A    between atoms: _551  and  _553
REMARK  214  A    between atoms: _553  and  _554
REMARK  215  A    between atoms: _553  and  _556
REMARK  216  A    between atoms: _556  and  _557
REMARK  217  A    between atoms: _559  and  _561
REMARK  218  A    between atoms: _561  and  _562
REMARK  219  A    between atoms: _561  and  _564
REMARK  220  A    between atoms: _564  and  _565
REMARK  221  A    between atoms: _570  and  _572
REMARK  222  A    between atoms: _572  and  _573
REMARK  223  A    between atoms: _572  and  _575
REMARK  224  A    between atoms: _575  and  _576
REMARK  225  A    between atoms: _581  and  _583
REMARK  226  A    between atoms: _583  and  _584
REMARK  227  A    between atoms: _583  and  _586
REMARK  228  A    between atoms: _586  and  _587
REMARK  229  A    between atoms: _590  and  _592
REMARK  230  A    between atoms: _592  and  _593
REMARK  231  A    between atoms: _596  and  _598
REMARK  232  A    between atoms: _598  and  _599
REMARK  233  A    between atoms: _598  and  _601
REMARK  234  A    between atoms: _601  and  _602
REMARK  235  A    between atoms: _607  and  _608
REMARK  236  A    between atoms: _610  and  _612
REMARK  237  A    between atoms: _612  and  _613
REMARK  238  A    between atoms: _612  and  _615
REMARK  239  A    between atoms: _615  and  _616
REMARK  240  A    between atoms: _621  and  _622
REMARK  241  A    between atoms: _624  and  _626
REMARK  242  A    between atoms: _626  and  _627
REMARK  243  A    between atoms: _626  and  _629
REMARK  244  A    between atoms: _632  and  _634
REMARK  245  A    between atoms: _634  and  _635
REMARK  246  A    between atoms: _634  and  _637
REMARK  247  A    between atoms: _637  and  _638
REMARK  248  A    between atoms: _643  and  _645
REMARK  249  A    between atoms: _645  and  _646
REMARK  250  A    between atoms: _649  and  _651
REMARK  251  A    between atoms: _651  and  _652
REMARK  252  A    between atoms: _651  and  _654
REMARK  253  A    between atoms: _654  and  _655
REMARK  254  A    between atoms: _655  and  _656
REMARK  255  A    between atoms: _656  and  _657
REMARK  256  A    between atoms: _666  and  _668
REMARK  257  A    between atoms: _668  and  _669
REMARK  258  A    between atoms: _668  and  _671
REMARK  259  A    between atoms: _671  and  _672
REMARK  260  A    between atoms: _675  and  _677
REMARK  261  A    between atoms: _677  and  _678
REMARK  262  A    between atoms: _677  and  _680
REMARK  263  A    between atoms: _680  and  _681
REMARK  264  A    between atoms: _684  and  _686
REMARK  265  A    between atoms: _686  and  _687
REMARK  266  A    between atoms: _686  and  _689
REMARK  267  A    between atoms: _689  and  _690
REMARK                            x       y       z     vdW  Elec       q    Type
REMARK                         _______ _______ _______ _____ _____    ______ ____
ROOT
ATOM      1  O   HOH     1       3.345  17.103   8.302  0.00  0.00    +0.000 OA
ENDROOT
TORSDOF 0
REMARK  Name = ../refined-set-2016/2olb/2olb_pocket.pdb
REMARK  267 active torsions:
REMARK  status: ('A' for Active; 'I' for Inactive)
REMARK    1  A    between atoms: _1  and  _3
REMARK    2  A    between atoms: _3  and  _4
REMARK    3  A    between atoms: _3  and  _6
REMARK    4  A    between atoms: _6  and  _7
REMARK    5  A    between atoms: _12  and  _14
REMARK    6  A    between atoms: _14  and  _15
REMARK    7  A    between atoms: _17  and  _19
REMARK    8  A    between atoms: _19  and  _20
REMARK    9  A    between atoms: _19  and  _22
REMARK   10  A    between atoms: _22  and  _23
REMARK   11  A    between atoms: _23  and  _24
REMARK   12  A    between atoms: _29  and  _31
REMARK   13  A    between atoms: _31  and  _32
REMARK   14  A    between atoms: _31  and  _34
REMARK   15  A    between atoms: _34  and  _35
REMARK   16  A    between atoms: _38  and  _40
REMARK   17  A    between atoms: _40  and  _41
REMARK   18  A    between atoms: _40  and  _43
REMARK   19  A    between atoms: _43  and  _44
REMARK   20  A    between atoms: _44  and  _45
REMARK   21  A    between atoms: _48  and  _50
REMARK   22  A    between atoms: _50  and  _51
REMARK   23  A    between atoms: _53  and  _55
REMARK   24  A    between atoms: _55  and  _56
REMARK   25  A    between atoms: _55  and  _58
REMARK   26  A    between atoms: _62  and  _63
REMARK   27  A    between atoms: _68  and  _70
REMARK   28  A    between atoms: _70  and  _71
REMARK   29  A    between atoms: _70  and  _73
REMARK   30  A    between atoms: _73  and  _74
REMARK   31  A    between atoms: _74  and  _75
REMARK   32  A    between atoms: _78  and  _80
REMARK   33  A    between atoms: _80  and  _81
REMARK   34  A    between atoms: _80  and  _83
REMARK   35  A    between atoms: _83  and  _84
REMARK   36  A    between atoms: _86  and  _88
REMARK   37  A    between atoms: _88  and  _89
REMARK   38  A    between atoms: _88  and  _91
REMARK   39  A    between atoms: _91  and  _92
REMARK   40  A    between atoms: _97  and  _99
REMARK   41  A    between atoms: _99  and  _100
REMARK   42  A    between atoms: _99  and  _102
REMARK   43  A    between atoms: _102  and  _103
REMARK   44  A    between atoms: _103  and  _104
REMARK   45  A    between atoms: _104  and  _105
REMARK   46  A    between atoms: _115  and  _116
REMARK   47  A    between atoms: _121  and  _123
REMARK   48  A    between atoms: _123  and  _124
REMARK   49  A    between atoms: _123  and  _126
REMARK   50  A    between atoms: _126  and  _127
REMARK   51  A    between atoms: _132  and  _133
REMARK   52  A    between atoms: _135  and  _137
REMARK   53  A    between atoms: _137  and  _138
REMARK   54  A    between atoms: _137  and  _140
REMARK   55  A    between atoms: _140  and  _141
REMARK   56  A    between atoms: _146  and  _147
REMARK   57  A    between atoms: _149  and  _151
REMARK   58  A    between atoms: _151  and  _152
REMARK   59  A    between atoms: _151  and  _154
REMARK   60  A    between atoms: _157  and  _159
REMARK   61  A    between atoms: _159  and  _160
REMARK   62  A    between atoms: _159  and  _162
REMARK   63  A    between atoms: _162  and  _163
REMARK   64  A    between atoms: _169  and  _170
REMARK   65  A    between atoms: _175  and  _177
REMARK   66  A    between atoms: _177  and  _178
REMARK   67  A    between atoms: _177  and  _180
REMARK   68  A    between atoms: _180  and  _181
REMARK   69  A    between atoms: _183  and  _185
REMARK   70  A    between atoms: _185  and  _186
REMARK   71  A    between atoms: _185  and  _188
REMARK   72  A    between atoms: _188  and  _189
REMARK   73  A    between atoms: _189  and  _190
REMARK   74  A    between atoms: _193  and  _195
REMARK   75  A    between atoms: _195  and  _196
REMARK   76  A    between atoms: _195  and  _198
REMARK   77  A    between atoms: _198  and  _199
REMARK   78  A    between atoms: _204  and  _205
REMARK   79  A    between atoms: _207  and  _209
REMARK   80  A    between atoms: _209  and  _210
REMARK   81  A    between atoms: _209  and  _212
REMARK   82  A    between atoms: _212  and  _213
REMARK   83  A    between atoms: _218  and  _220
REMARK   84  A    between atoms: _220  and  _221
REMARK   85  A    between atoms: _220  and  _223
REMARK   86  A    between atoms: _223  and  _224
REMARK   87  A    between atoms: _229  and  _231
REMARK   88  A    between atoms: _231  and  _232
REMARK   89  A    between atoms: _231  and  _234
REMARK   90  A    between atoms: _234  and  _235
REMARK   91  A    between atoms: _235  and  _236
REMARK   92  A    between atoms: _238  and  _240
REMARK   93  A    between atoms: _240  and  _241
REMARK   94  A    between atoms: _240  and  _243
REMARK   95  A    between atoms: _243  and  _244
REMARK   96  A    between atoms: _249  and  _250
REMARK   97  A    between atoms: _252  and  _254
REMARK   98  A    between atoms: _254  and  _255
REMARK   99  A    between atoms: _254  and  _257
REMARK  100  A    between atoms: _257  and  _258
REMARK  101  A    between atoms: _261  and  _263
REMARK  102  A    between atoms: _263  and  _264
REMARK  103  A    between atoms: _263  and  _266
REMARK  104  A    between atoms: _266  and  _267
REMARK  105  A    between atoms: _267  and  _484
REMARK  106  A    between atoms: _268  and  _270
REMARK  107  A    between atoms: _270  and  _271
REMARK  108  A    between atoms: _270  and  _273
REMARK  109  A    between atoms: _273  and  _274
REMARK  110  A    between atoms: _277  and  _279
REMARK  111  A    between atoms: _279  and  _280
REMARK  112  A    between atoms: _279  and  _282
REMARK  113  A    between atoms: _282  and  _283
REMARK  114  A    between atoms: _288  and  _289
REMARK  115  A    between atoms: _291  and  _293
REMARK  116  A    between atoms: _293  and  _294
REMARK  117  A    between atoms: _293  and  _296
REMARK  118  A    between atoms: _296  and  _297
REMARK  119  A    between atoms: _302  and  _303
REMARK  120  A    between atoms: _305  and  _307
REMARK  121  A    between atoms: _307  and  _308
REMARK  122  A    between atoms: _307  and  _310
REMARK  123  A    between atoms: _310  and  _311
REMARK  124  A    between atoms: _311  and  _312
REMARK  125  A    between atoms: _315  and  _317
REMARK  126  A    between atoms: _317  and  _318
REMARK  127  A    between atoms: _317  and  _320
REMARK  128  A    between atoms: _320  and  _321
REMARK  129  A    between atoms: _326  and  _327
REMARK  130  A    between atoms: _329  and  _331
REMARK  131  A    between atoms: _331  and  _332
REMARK  132  A    between atoms: _331  and  _334
REMARK  133  A    between atoms: _334  and  _335
REMARK  134  A    between atoms: _340  and  _342
REMARK  135  A    between atoms: _342  and  _343
REMARK  136  A    between atoms: _342  and  _345
REMARK  137  A    between atoms: _345  and  _346
REMARK  138  A    between atoms: _349  and  _351
REMARK  139  A    between atoms: _351  and  _352
REMARK  140  A    between atoms: _351  and  _354
REMARK  141  A    between atoms: _354  and  _355
REMARK  142  A    between atoms: _360  and  _362
REMARK  143  A    between atoms: _362  and  _363
REMARK  144  A    between atoms: _362  and  _365
REMARK  145  A    between atoms: _365  and  _366
REMARK  146  A    between atoms: _376  and  _378
REMARK  147  A    between atoms: _378  and  _379
REMARK  148  A    between atoms: _378  and  _381
REMARK  149  A    between atoms: _381  and  _382
REMARK  150  A    between atoms: _388  and  _390
REMARK  151  A    between atoms: _390  and  _391
REMARK  152  A    between atoms: _390  and  _393
REMARK  153  A    between atoms: _393  and  _394
REMARK  154  A    between atoms: _397  and  _399
REMARK  155  A    between atoms: _399  and  _400
REMARK  156  A    between atoms: _399  and  _402
REMARK  157  A    between atoms: _402  and  _403
REMARK  158  A    between atoms: _406  and  _408
REMARK  159  A    between atoms: _408  and  _409
REMARK  160  A    between atoms: _408  and  _411
REMARK  161  A    between atoms: _411  and  _412
REMARK  162  A    between atoms: _412  and  _413
REMARK  163  A    between atoms: _413  and  _414
REMARK  164  A    between atoms: _423  and  _425
REMARK  165  A    between atoms: _425  and  _426
REMARK  166  A    between atoms: _425  and  _428
REMARK  167  A    between atoms: _428  and  _429
REMARK  168  A    between atoms: _434  and  _436
REMARK  169  A    between atoms: _436  and  _437
REMARK  170  A    between atoms: _436  and  _439
REMARK  171  A    between atoms: _439  and  _440
REMARK  172  A    between atoms: _440  and  _441
REMARK  173  A    between atoms: _441  and  _442
REMARK  174  A    between atoms: _451  and  _453
REMARK  175  A    between atoms: _453  and  _454
REMARK  176  A    between atoms: _457  and  _459
REMARK  177  A    between atoms: _459  and  _460
REMARK  178  A    between atoms: _462  and  _464
REMARK  179  A    between atoms: _464  and  _465
REMARK  180  A    between atoms: _464  and  _467
REMARK  181  A    between atoms: _467  and  _468
REMARK  182  A    between atoms: _478  and  _480
REMARK  183  A    between atoms: _480  and  _481
REMARK  184  A    between atoms: _480  and  _483
REMARK  185  A    between atoms: _483  and  _484
REMARK  186  A    between atoms: _485  and  _487
REMARK  187  A    between atoms: _487  and  _488
REMARK  188  A    between atoms: _491  and  _493
REMARK  189  A    between atoms: _493  and  _494
REMARK  190  A    between atoms: _493  and  _496
REMARK  191  A    between atoms: _496  and  _497
REMARK  192  A    between atoms: _500  and  _502
REMARK  193  A    between atoms: _502  and  _503
REMARK  194  A    between atoms: _502  and  _505
REMARK  195  A    between atoms: _505  and  _506
REMARK  196  A    between atoms: _511  and  _512
REMARK  197  A    between atoms: _514  and  _516
REMARK  198  A    between atoms: _516  and  _517
REMARK  199  A    between atoms: _516  and  _519
REMARK  200  A    between atoms: _519  and  _520
REMARK  201  A    between atoms: _522  and  _524
REMARK  202  A    between atoms: _524  and  _525
REMARK  203  A    between atoms: _524  and  _527
REMARK  204  A    between atoms: _527  and  _528
REMARK  205  A    between atoms: _534  and  _536
REMARK  206  A    between atoms: _536  and  _537
REMARK  207  A    between atoms: _536  and  _539
REMARK  208  A    between atoms: _539  and  _540
REMARK  209  A    between atoms: _543  and  _545
REMARK  210  A    between atoms: _545  and  _546
REMARK  211  A    between atoms: _545  and  _548
REMARK  212  A    between atoms: _548  and  _549
REMARK  213  A    between atoms: _551  and  _553
REMARK  214  A    between atoms: _553  and  _554
REMARK  215  A    between atoms: _553  and  _556
REMARK  216  A    between atoms: _556  and  _557
REMARK  217  A    between atoms: _559  and  _561
REMARK  218  A    between atoms: _561  and  _562
REMARK  219  A    between atoms: _561  and  _564
REMARK  220  A    between atoms: _564  and  _565
REMARK  221  A    between atoms: _570  and  _572
REMARK  222  A    between atoms: _572  and  _573
REMARK  223  A    between atoms: _572  and  _575
REMARK  224  A    between atoms: _575  and  _576
REMARK  225  A    between atoms: _581  and  _583
REMARK  226  A    between atoms: _583  and  _584
REMARK  227  A    between atoms: _583  and  _586
REMARK  228  A    between atoms: _586  and  _587
REMARK  229  A    between atoms: _590  and  _592
REMARK  230  A    between atoms: _592  and  _593
REMARK  231  A    between atoms: _596  and  _598
REMARK  232  A    between atoms: _598  and  _599
REMARK  233  A    between atoms: _598  and  _601
REMARK  234  A    between atoms: _601  and  _602
REMARK  235  A    between atoms: _607  and  _608
REMARK  236  A    between atoms: _610  and  _612
REMARK  237  A    between atoms: _612  and  _613
REMARK  238  A    between atoms: _612  and  _615
REMARK  239  A    between atoms: _615  and  _616
REMARK  240  A    between atoms: _621  and  _622
REMARK  241  A    between atoms: _624  and  _626
REMARK  242  A    between atoms: _626  and  _627
REMARK  243  A    between atoms: _626  and  _629
REMARK  244  A    between atoms: _632  and  _634
REMARK  245  A    between atoms: _634  and  _635
REMARK  246  A    between atoms: _634  and  _637
REMARK  247  A    between atoms: _637  and  _638
REMARK  248  A    between atoms: _643  and  _645
REMARK  249  A    between atoms: _645  and  _646
REMARK  250  A    between atoms: _649  and  _651
REMARK  251  A    between atoms: _651  and  _652
REMARK  252  A    between atoms: _651  and  _654
REMARK  253  A    between atoms: _654  and  _655
REMARK  254  A    between atoms: _655  and  _656
REMARK  255  A    between atoms: _656  and  _657
REMARK  256  A    between atoms: _666  and  _668
REMARK  257  A    between atoms: _668  and  _669
REMARK  258  A    between atoms: _668  and  _671
REMARK  259  A    between atoms: _671  and  _672
REMARK  260  A    between atoms: _675  and  _677
REMARK  261  A    between atoms: _677  and  _678
REMARK  262  A    between atoms: _677  and  _680
REMARK  263  A    between atoms: _680  and  _681
REMARK  264  A    between atoms: _684  and  _686
REMARK  265  A    between atoms: _686  and  _687
REMARK  266  A    between atoms: _686  and  _689
REMARK  267  A    between atoms: _689  and  _690
REMARK                            x       y       z     vdW  Elec       q    Type
REMARK                         _______ _______ _______ _____ _____    ______ ____
ROOT
ATOM      1  O   HOH     1      -7.983  23.991   9.692  0.00  0.00    +0.000 OA
ENDROOT
TORSDOF 0
REMARK  Name = ../refined-set-2016/2olb/2olb_pocket.pdb
REMARK  267 active torsions:
REMARK  status: ('A' for Active; 'I' for Inactive)
REMARK    1  A    between atoms: _1  and  _3
REMARK    2  A    between atoms: _3  and  _4
REMARK    3  A    between atoms: _3  and  _6
REMARK    4  A    between atoms: _6  and  _7
REMARK    5  A    between atoms: _12  and  _14
REMARK    6  A    between atoms: _14  and  _15
REMARK    7  A    between atoms: _17  and  _19
REMARK    8  A    between atoms: _19  and  _20
REMARK    9  A    between atoms: _19  and  _22
REMARK   10  A    between atoms: _22  and  _23
REMARK   11  A    between atoms: _23  and  _24
REMARK   12  A    between atoms: _29  and  _31
REMARK   13  A    between atoms: _31  and  _32
REMARK   14  A    between atoms: _31  and  _34
REMARK   15  A    between atoms: _34  and  _35
REMARK   16  A    between atoms: _38  and  _40
REMARK   17  A    between atoms: _40  and  _41
REMARK   18  A    between atoms: _40  and  _43
REMARK   19  A    between atoms: _43  and  _44
REMARK   20  A    between atoms: _44  and  _45
REMARK   21  A    between atoms: _48  and  _50
REMARK   22  A    between atoms: _50  and  _51
REMARK   23  A    between atoms: _53  and  _55
REMARK   24  A    between atoms: _55  and  _56
REMARK   25  A    between atoms: _55  and  _58
REMARK   26  A    between atoms: _62  and  _63
REMARK   27  A    between atoms: _68  and  _70
REMARK   28  A    between atoms: _70  and  _71
REMARK   29  A    between atoms: _70  and  _73
REMARK   30  A    between atoms: _73  and  _74
REMARK   31  A    between atoms: _74  and  _75
REMARK   32  A    between atoms: _78  and  _80
REMARK   33  A    between atoms: _80  and  _81
REMARK   34  A    between atoms: _80  and  _83
REMARK   35  A    between atoms: _83  and  _84
REMARK   36  A    between atoms: _86  and  _88
REMARK   37  A    between atoms: _88  and  _89
REMARK   38  A    between atoms: _88  and  _91
REMARK   39  A    between atoms: _91  and  _92
REMARK   40  A    between atoms: _97  and  _99
REMARK   41  A    between atoms: _99  and  _100
REMARK   42  A    between atoms: _99  and  _102
REMARK   43  A    between atoms: _102  and  _103
REMARK   44  A    between atoms: _103  and  _104
REMARK   45  A    between atoms: _104  and  _105
REMARK   46  A    between atoms: _115  and  _116
REMARK   47  A    between atoms: _121  and  _123
REMARK   48  A    between atoms: _123  and  _124
REMARK   49  A    between atoms: _123  and  _126
REMARK   50  A    between atoms: _126  and  _127
REMARK   51  A    between atoms: _132  and  _133
REMARK   52  A    between atoms: _135  and  _137
REMARK   53  A    between atoms: _137  and  _138
REMARK   54  A    between atoms: _137  and  _140
REMARK   55  A    between atoms: _140  and  _141
REMARK   56  A    between atoms: _146  and  _147
REMARK   57  A    between atoms: _149  and  _151
REMARK   58  A    between atoms: _151  and  _152
REMARK   59  A    between atoms: _151  and  _154
REMARK   60  A    between atoms: _157  and  _159
REMARK   61  A    between atoms: _159  and  _160
REMARK   62  A    between atoms: _159  and  _162
REMARK   63  A    between atoms: _162  and  _163
REMARK   64  A    between atoms: _169  and  _170
REMARK   65  A    between atoms: _175  and  _177
REMARK   66  A    between atoms: _177  and  _178
REMARK   67  A    between atoms: _177  and  _180
REMARK   68  A    between atoms: _180  and  _181
REMARK   69  A    between atoms: _183  and  _185
REMARK   70  A    between atoms: _185  and  _186
REMARK   71  A    between atoms: _185  and  _188
REMARK   72  A    between atoms: _188  and  _189
REMARK   73  A    between atoms: _189  and  _190
REMARK   74  A    between atoms: _193  and  _195
REMARK   75  A    between atoms: _195  and  _196
REMARK   76  A    between atoms: _195  and  _198
REMARK   77  A    between atoms: _198  and  _199
REMARK   78  A    between atoms: _204  and  _205
REMARK   79  A    between atoms: _207  and  _209
REMARK   80  A    between atoms: _209  and  _210
REMARK   81  A    between atoms: _209  and  _212
REMARK   82  A    between atoms: _212  and  _213
REMARK   83  A    between atoms: _218  and  _220
REMARK   84  A    between atoms: _220  and  _221
REMARK   85  A    between atoms: _220  and  _223
REMARK   86  A    between atoms: _223  and  _224
REMARK   87  A    between atoms: _229  and  _231
REMARK   88  A    between atoms: _231  and  _232
REMARK   89  A    between atoms: _231  and  _234
REMARK   90  A    between atoms: _234  and  _235
REMARK   91  A    between atoms: _235  and  _236
REMARK   92  A    between atoms: _238  and  _240
REMARK   93  A    between atoms: _240  and  _241
REMARK   94  A    between atoms: _240  and  _243
REMARK   95  A    between atoms: _243  and  _244
REMARK   96  A    between atoms: _249  and  _250
REMARK   97  A    between atoms: _252  and  _254
REMARK   98  A    between atoms: _254  and  _255
REMARK   99  A    between atoms: _254  and  _257
REMARK  100  A    between atoms: _257  and  _258
REMARK  101  A    between atoms: _261  and  _263
REMARK  102  A    between atoms: _263  and  _264
REMARK  103  A    between atoms: _263  and  _266
REMARK  104  A    between atoms: _266  and  _267
REMARK  105  A    between atoms: _267  and  _484
REMARK  106  A    between atoms: _268  and  _270
REMARK  107  A    between atoms: _270  and  _271
REMARK  108  A    between atoms: _270  and  _273
REMARK  109  A    between atoms: _273  and  _274
REMARK  110  A    between atoms: _277  and  _279
REMARK  111  A    between atoms: _279  and  _280
REMARK  112  A    between atoms: _279  and  _282
REMARK  113  A    between atoms: _282  and  _283
REMARK  114  A    between atoms: _288  and  _289
REMARK  115  A    between atoms: _291  and  _293
REMARK  116  A    between atoms: _293  and  _294
REMARK  117  A    between atoms: _293  and  _296
REMARK  118  A    between atoms: _296  and  _297
REMARK  119  A    between atoms: _302  and  _303
REMARK  120  A    between atoms: _305  and  _307
REMARK  121  A    between atoms: _307  and  _308
REMARK  122  A    between atoms: _307  and  _310
REMARK  123  A    between atoms: _310  and  _311
REMARK  124  A    between atoms: _311  and  _312
REMARK  125  A    between atoms: _315  and  _317
REMARK  126  A    between atoms: _317  and  _318
REMARK  127  A    between atoms: _317  and  _320
REMARK  128  A    between atoms: _320  and  _321
REMARK  129  A    between atoms: _326  and  _327
REMARK  130  A    between atoms: _329  and  _331
REMARK  131  A    between atoms: _331  and  _332
REMARK  132  A    between atoms: _331  and  _334
REMARK  133  A    between atoms: _334  and  _335
REMARK  134  A    between atoms: _340  and  _342
REMARK  135  A    between atoms: _342  and  _343
REMARK  136  A    between atoms: _342  and  _345
REMARK  137  A    between atoms: _345  and  _346
REMARK  138  A    between atoms: _349  and  _351
REMARK  139  A    between atoms: _351  and  _352
REMARK  140  A    between atoms: _351  and  _354
REMARK  141  A    between atoms: _354  and  _355
REMARK  142  A    between atoms: _360  and  _362
REMARK  143  A    between atoms: _362  and  _363
REMARK  144  A    between atoms: _362  and  _365
REMARK  145  A    between atoms: _365  and  _366
REMARK  146  A    between atoms: _376  and  _378
REMARK  147  A    between atoms: _378  and  _379
REMARK  148  A    between atoms: _378  and  _381
REMARK  149  A    between atoms: _381  and  _382
REMARK  150  A    between atoms: _388  and  _390
REMARK  151  A    between atoms: _390  and  _391
REMARK  152  A    between atoms: _390  and  _393
REMARK  153  A    between atoms: _393  and  _394
REMARK  154  A    between atoms: _397  and  _399
REMARK  155  A    between atoms: _399  and  _400
REMARK  156  A    between atoms: _399  and  _402
REMARK  157  A    between atoms: _402  and  _403
REMARK  158  A    between atoms: _406  and  _408
REMARK  159  A    between atoms: _408  and  _409
REMARK  160  A    between atoms: _408  and  _411
REMARK  161  A    between atoms: _411  and  _412
REMARK  162  A    between atoms: _412  and  _413
REMARK  163  A    between atoms: _413  and  _414
REMARK  164  A    between atoms: _423  and  _425
REMARK  165  A    between atoms: _425  and  _426
REMARK  166  A    between atoms: _425  and  _428
REMARK  167  A    between atoms: _428  and  _429
REMARK  168  A    between atoms: _434  and  _436
REMARK  169  A    between atoms: _436  and  _437
REMARK  170  A    between atoms: _436  and  _439
REMARK  171  A    between atoms: _439  and  _440
REMARK  172  A    between atoms: _440  and  _441
REMARK  173  A    between atoms: _441  and  _442
REMARK  174  A    between atoms: _451  and  _453
REMARK  175  A    between atoms: _453  and  _454
REMARK  176  A    between atoms: _457  and  _459
REMARK  177  A    between atoms: _459  and  _460
REMARK  178  A    between atoms: _462  and  _464
REMARK  179  A    between atoms: _464  and  _465
REMARK  180  A    between atoms: _464  and  _467
REMARK  181  A    between atoms: _467  and  _468
REMARK  182  A    between atoms: _478  and  _480
REMARK  183  A    between atoms: _480  and  _481
REMARK  184  A    between atoms: _480  and  _483
REMARK  185  A    between atoms: _483  and  _484
REMARK  186  A    between atoms: _485  and  _487
REMARK  187  A    between atoms: _487  and  _488
REMARK  188  A    between atoms: _491  and  _493
REMARK  189  A    between atoms: _493  and  _494
REMARK  190  A    between atoms: _493  and  _496
REMARK  191  A    between atoms: _496  and  _497
REMARK  192  A    between atoms: _500  and  _502
REMARK  193  A    between atoms: _502  and  _503
REMARK  194  A    between atoms: _502  and  _505
REMARK  195  A    between atoms: _505  and  _506
REMARK  196  A    between atoms: _511  and  _512
REMARK  197  A    between atoms: _514  and  _516
REMARK  198  A    between atoms: _516  and  _517
REMARK  199  A    between atoms: _516  and  _519
REMARK  200  A    between atoms: _519  and  _520
REMARK  201  A    between atoms: _522  and  _524
REMARK  202  A    between atoms: _524  and  _525
REMARK  203  A    between atoms: _524  and  _527
REMARK  204  A    between atoms: _527  and  _528
REMARK  205  A    between atoms: _534  and  _536
REMARK  206  A    between atoms: _536  and  _537
REMARK  207  A    between atoms: _536  and  _539
REMARK  208  A    between atoms: _539  and  _540
REMARK  209  A    between atoms: _543  and  _545
REMARK  210  A    between atoms: _545  and  _546
REMARK  211  A    between atoms: _545  and  _548
REMARK  212  A    between atoms: _548  and  _549
REMARK  213  A    between atoms: _551  and  _553
REMARK  214  A    between atoms: _553  and  _554
REMARK  215  A    between atoms: _553  and  _556
REMARK  216  A    between atoms: _556  and  _557
REMARK  217  A    between atoms: _559  and  _561
REMARK  218  A    between atoms: _561  and  _562
REMARK  219  A    between atoms: _561  and  _564
REMARK  220  A    between atoms: _564  and  _565
REMARK  221  A    between atoms: _570  and  _572
REMARK  222  A    between atoms: _572  and  _573
REMARK  223  A    between atoms: _572  and  _575
REMARK  224  A    between atoms: _575  and  _576
REMARK  225  A    between atoms: _581  and  _583
REMARK  226  A    between atoms: _583  and  _584
REMARK  227  A    between atoms: _583  and  _586
REMARK  228  A    between atoms: _586  and  _587
REMARK  229  A    between atoms: _590  and  _592
REMARK  230  A    between atoms: _592  and  _593
REMARK  231  A    between atoms: _596  and  _598
REMARK  232  A    between atoms: _598  and  _599
REMARK  233  A    between atoms: _598  and  _601
REMARK  234  A    between atoms: _601  and  _602
REMARK  235  A    between atoms: _607  and  _608
REMARK  236  A    between atoms: _610  and  _612
REMARK  237  A    between atoms: _612  and  _613
REMARK  238  A    between atoms: _612  and  _615
REMARK  239  A    between atoms: _615  and  _616
REMARK  240  A    between atoms: _621  and  _622
REMARK  241  A    between atoms: _624  and  _626
REMARK  242  A    between atoms: _626  and  _627
REMARK  243  A    between atoms: _626  and  _629
REMARK  244  A    between atoms: _632  and  _634
REMARK  245  A    between atoms: _634  and  _635
REMARK  246  A    between atoms: _634  and  _637
REMARK  247  A    between atoms: _637  and  _638
REMARK  248  A    between atoms: _643  and  _645
REMARK  249  A    between atoms: _645  and  _646
REMARK  250  A    between atoms: _649  and  _651
REMARK  251  A    between atoms: _651  and  _652
REMARK  252  A    between atoms: _651  and  _654
REMARK  253  A    between atoms: _654  and  _655
REMARK  254  A    between atoms: _655  and  _656
REMARK  255  A    between atoms: _656  and  _657
REMARK  256  A    between atoms: _666  and  _668
REMARK  257  A    between atoms: _668  and  _669
REMARK  258  A    between atoms: _668  and  _671
REMARK  259  A    between atoms: _671  and  _672
REMARK  260  A    between atoms: _675  and  _677
REMARK  261  A    between atoms: _677  and  _678
REMARK  262  A    between atoms: _677  and  _680
REMARK  263  A    between atoms: _680  and  _681
REMARK  264  A    between atoms: _684  and  _686
REMARK  265  A    between atoms: _686  and  _687
REMARK  266  A    between atoms: _686  and  _689
REMARK  267  A    between atoms: _689  and  _690
REMARK                            x       y       z     vdW  Elec       q    Type
REMARK                         _______ _______ _______ _____ _____    ______ ____
ROOT
ATOM      1  O   HOH     1      -7.282  24.137  12.228  0.00  0.00    +0.000 OA
ENDROOT
TORSDOF 0
REMARK  Name = ../refined-set-2016/2olb/2olb_pocket.pdb
REMARK  267 active torsions:
REMARK  status: ('A' for Active; 'I' for Inactive)
REMARK    1  A    between atoms: _1  and  _3
REMARK    2  A    between atoms: _3  and  _4
REMARK    3  A    between atoms: _3  and  _6
REMARK    4  A    between atoms: _6  and  _7
REMARK    5  A    between atoms: _12  and  _14
REMARK    6  A    between atoms: _14  and  _15
REMARK    7  A    between atoms: _17  and  _19
REMARK    8  A    between atoms: _19  and  _20
REMARK    9  A    between atoms: _19  and  _22
REMARK   10  A    between atoms: _22  and  _23
REMARK   11  A    between atoms: _23  and  _24
REMARK   12  A    between atoms: _29  and  _31
REMARK   13  A    between atoms: _31  and  _32
REMARK   14  A    between atoms: _31  and  _34
REMARK   15  A    between atoms: _34  and  _35
REMARK   16  A    between atoms: _38  and  _40
REMARK   17  A    between atoms: _40  and  _41
REMARK   18  A    between atoms: _40  and  _43
REMARK   19  A    between atoms: _43  and  _44
REMARK   20  A    between atoms: _44  and  _45
REMARK   21  A    between atoms: _48  and  _50
REMARK   22  A    between atoms: _50  and  _51
REMARK   23  A    between atoms: _53  and  _55
REMARK   24  A    between atoms: _55  and  _56
REMARK   25  A    between atoms: _55  and  _58
REMARK   26  A    between atoms: _62  and  _63
REMARK   27  A    between atoms: _68  and  _70
REMARK   28  A    between atoms: _70  and  _71
REMARK   29  A    between atoms: _70  and  _73
REMARK   30  A    between atoms: _73  and  _74
REMARK   31  A    between atoms: _74  and  _75
REMARK   32  A    between atoms: _78  and  _80
REMARK   33  A    between atoms: _80  and  _81
REMARK   34  A    between atoms: _80  and  _83
REMARK   35  A    between atoms: _83  and  _84
REMARK   36  A    between atoms: _86  and  _88
REMARK   37  A    between atoms: _88  and  _89
REMARK   38  A    between atoms: _88  and  _91
REMARK   39  A    between atoms: _91  and  _92
REMARK   40  A    between atoms: _97  and  _99
REMARK   41  A    between atoms: _99  and  _100
REMARK   42  A    between atoms: _99  and  _102
REMARK   43  A    between atoms: _102  and  _103
REMARK   44  A    between atoms: _103  and  _104
REMARK   45  A    between atoms: _104  and  _105
REMARK   46  A    between atoms: _115  and  _116
REMARK   47  A    between atoms: _121  and  _123
REMARK   48  A    between atoms: _123  and  _124
REMARK   49  A    between atoms: _123  and  _126
REMARK   50  A    between atoms: _126  and  _127
REMARK   51  A    between atoms: _132  and  _133
REMARK   52  A    between atoms: _135  and  _137
REMARK   53  A    between atoms: _137  and  _138
REMARK   54  A    between atoms: _137  and  _140
REMARK   55  A    between atoms: _140  and  _141
REMARK   56  A    between atoms: _146  and  _147
REMARK   57  A    between atoms: _149  and  _151
REMARK   58  A    between atoms: _151  and  _152
REMARK   59  A    between atoms: _151  and  _154
REMARK   60  A    between atoms: _157  and  _159
REMARK   61  A    between atoms: _159  and  _160
REMARK   62  A    between atoms: _159  and  _162
REMARK   63  A    between atoms: _162  and  _163
REMARK   64  A    between atoms: _169  and  _170
REMARK   65  A    between atoms: _175  and  _177
REMARK   66  A    between atoms: _177  and  _178
REMARK   67  A    between atoms: _177  and  _180
REMARK   68  A    between atoms: _180  and  _181
REMARK   69  A    between atoms: _183  and  _185
REMARK   70  A    between atoms: _185  and  _186
REMARK   71  A    between atoms: _185  and  _188
REMARK   72  A    between atoms: _188  and  _189
REMARK   73  A    between atoms: _189  and  _190
REMARK   74  A    between atoms: _193  and  _195
REMARK   75  A    between atoms: _195  and  _196
REMARK   76  A    between atoms: _195  and  _198
REMARK   77  A    between atoms: _198  and  _199
REMARK   78  A    between atoms: _204  and  _205
REMARK   79  A    between atoms: _207  and  _209
REMARK   80  A    between atoms: _209  and  _210
REMARK   81  A    between atoms: _209  and  _212
REMARK   82  A    between atoms: _212  and  _213
REMARK   83  A    between atoms: _218  and  _220
REMARK   84  A    between atoms: _220  and  _221
REMARK   85  A    between atoms: _220  and  _223
REMARK   86  A    between atoms: _223  and  _224
REMARK   87  A    between atoms: _229  and  _231
REMARK   88  A    between atoms: _231  and  _232
REMARK   89  A    between atoms: _231  and  _234
REMARK   90  A    between atoms: _234  and  _235
REMARK   91  A    between atoms: _235  and  _236
REMARK   92  A    between atoms: _238  and  _240
REMARK   93  A    between atoms: _240  and  _241
REMARK   94  A    between atoms: _240  and  _243
REMARK   95  A    between atoms: _243  and  _244
REMARK   96  A    between atoms: _249  and  _250
REMARK   97  A    between atoms: _252  and  _254
REMARK   98  A    between atoms: _254  and  _255
REMARK   99  A    between atoms: _254  and  _257
REMARK  100  A    between atoms: _257  and  _258
REMARK  101  A    between atoms: _261  and  _263
REMARK  102  A    between atoms: _263  and  _264
REMARK  103  A    between atoms: _263  and  _266
REMARK  104  A    between atoms: _266  and  _267
REMARK  105  A    between atoms: _267  and  _484
REMARK  106  A    between atoms: _268  and  _270
REMARK  107  A    between atoms: _270  and  _271
REMARK  108  A    between atoms: _270  and  _273
REMARK  109  A    between atoms: _273  and  _274
REMARK  110  A    between atoms: _277  and  _279
REMARK  111  A    between atoms: _279  and  _280
REMARK  112  A    between atoms: _279  and  _282
REMARK  113  A    between atoms: _282  and  _283
REMARK  114  A    between atoms: _288  and  _289
REMARK  115  A    between atoms: _291  and  _293
REMARK  116  A    between atoms: _293  and  _294
REMARK  117  A    between atoms: _293  and  _296
REMARK  118  A    between atoms: _296  and  _297
REMARK  119  A    between atoms: _302  and  _303
REMARK  120  A    between atoms: _305  and  _307
REMARK  121  A    between atoms: _307  and  _308
REMARK  122  A    between atoms: _307  and  _310
REMARK  123  A    between atoms: _310  and  _311
REMARK  124  A    between atoms: _311  and  _312
REMARK  125  A    between atoms: _315  and  _317
REMARK  126  A    between atoms: _317  and  _318
REMARK  127  A    between atoms: _317  and  _320
REMARK  128  A    between atoms: _320  and  _321
REMARK  129  A    between atoms: _326  and  _327
REMARK  130  A    between atoms: _329  and  _331
REMARK  131  A    between atoms: _331  and  _332
REMARK  132  A    between atoms: _331  and  _334
REMARK  133  A    between atoms: _334  and  _335
REMARK  134  A    between atoms: _340  and  _342
REMARK  135  A    between atoms: _342  and  _343
REMARK  136  A    between atoms: _342  and  _345
REMARK  137  A    between atoms: _345  and  _346
REMARK  138  A    between atoms: _349  and  _351
REMARK  139  A    between atoms: _351  and  _352
REMARK  140  A    between atoms: _351  and  _354
REMARK  141  A    between atoms: _354  and  _355
REMARK  142  A    between atoms: _360  and  _362
REMARK  143  A    between atoms: _362  and  _363
REMARK  144  A    between atoms: _362  and  _365
REMARK  145  A    between atoms: _365  and  _366
REMARK  146  A    between atoms: _376  and  _378
REMARK  147  A    between atoms: _378  and  _379
REMARK  148  A    between atoms: _378  and  _381
REMARK  149  A    between atoms: _381  and  _382
REMARK  150  A    between atoms: _388  and  _390
REMARK  151  A    between atoms: _390  and  _391
REMARK  152  A    between atoms: _390  and  _393
REMARK  153  A    between atoms: _393  and  _394
REMARK  154  A    between atoms: _397  and  _399
REMARK  155  A    between atoms: _399  and  _400
REMARK  156  A    between atoms: _399  and  _402
REMARK  157  A    between atoms: _402  and  _403
REMARK  158  A    between atoms: _406  and  _408
REMARK  159  A    between atoms: _408  and  _409
REMARK  160  A    between atoms: _408  and  _411
REMARK  161  A    between atoms: _411  and  _412
REMARK  162  A    between atoms: _412  and  _413
REMARK  163  A    between atoms: _413  and  _414
REMARK  164  A    between atoms: _423  and  _425
REMARK  165  A    between atoms: _425  and  _426
REMARK  166  A    between atoms: _425  and  _428
REMARK  167  A    between atoms: _428  and  _429
REMARK  168  A    between atoms: _434  and  _436
REMARK  169  A    between atoms: _436  and  _437
REMARK  170  A    between atoms: _436  and  _439
REMARK  171  A    between atoms: _439  and  _440
REMARK  172  A    between atoms: _440  and  _441
REMARK  173  A    between atoms: _441  and  _442
REMARK  174  A    between atoms: _451  and  _453
REMARK  175  A    between atoms: _453  and  _454
REMARK  176  A    between atoms: _457  and  _459
REMARK  177  A    between atoms: _459  and  _460
REMARK  178  A    between atoms: _462  and  _464
REMARK  179  A    between atoms: _464  and  _465
REMARK  180  A    between atoms: _464  and  _467
REMARK  181  A    between atoms: _467  and  _468
REMARK  182  A    between atoms: _478  and  _480
REMARK  183  A    between atoms: _480  and  _481
REMARK  184  A    between atoms: _480  and  _483
REMARK  185  A    between atoms: _483  and  _484
REMARK  186  A    between atoms: _485  and  _487
REMARK  187  A    between atoms: _487  and  _488
REMARK  188  A    between atoms: _491  and  _493
REMARK  189  A    between atoms: _493  and  _494
REMARK  190  A    between atoms: _493  and  _496
REMARK  191  A    between atoms: _496  and  _497
REMARK  192  A    between atoms: _500  and  _502
REMARK  193  A    between atoms: _502  and  _503
REMARK  194  A    between atoms: _502  and  _505
REMARK  195  A    between atoms: _505  and  _506
REMARK  196  A    between atoms: _511  and  _512
REMARK  197  A    between atoms: _514  and  _516
REMARK  198  A    between atoms: _516  and  _517
REMARK  199  A    between atoms: _516  and  _519
REMARK  200  A    between atoms: _519  and  _520
REMARK  201  A    between atoms: _522  and  _524
REMARK  202  A    between atoms: _524  and  _525
REMARK  203  A    between atoms: _524  and  _527
REMARK  204  A    between atoms: _527  and  _528
REMARK  205  A    between atoms: _534  and  _536
REMARK  206  A    between atoms: _536  and  _537
REMARK  207  A    between atoms: _536  and  _539
REMARK  208  A    between atoms: _539  and  _540
REMARK  209  A    between atoms: _543  and  _545
REMARK  210  A    between atoms: _545  and  _546
REMARK  211  A    between atoms: _545  and  _548
REMARK  212  A    between atoms: _548  and  _549
REMARK  213  A    between atoms: _551  and  _553
REMARK  214  A    between atoms: _553  and  _554
REMARK  215  A    between atoms: _553  and  _556
REMARK  216  A    between atoms: _556  and  _557
REMARK  217  A    between atoms: _559  and  _561
REMARK  218  A    between atoms: _561  and  _562
REMARK  219  A    between atoms: _561  and  _564
REMARK  220  A    between atoms: _564  and  _565
REMARK  221  A    between atoms: _570  and  _572
REMARK  222  A    between atoms: _572  and  _573
REMARK  223  A    between atoms: _572  and  _575
REMARK  224  A    between atoms: _575  and  _576
REMARK  225  A    between atoms: _581  and  _583
REMARK  226  A    between atoms: _583  and  _584
REMARK  227  A    between atoms: _583  and  _586
REMARK  228  A    between atoms: _586  and  _587
REMARK  229  A    between atoms: _590  and  _592
REMARK  230  A    between atoms: _592  and  _593
REMARK  231  A    between atoms: _596  and  _598
REMARK  232  A    between atoms: _598  and  _599
REMARK  233  A    between atoms: _598  and  _601
REMARK  234  A    between atoms: _601  and  _602
REMARK  235  A    between atoms: _607  and  _608
REMARK  236  A    between atoms: _610  and  _612
REMARK  237  A    between atoms: _612  and  _613
REMARK  238  A    between atoms: _612  and  _615
REMARK  239  A    between atoms: _615  and  _616
REMARK  240  A    between atoms: _621  and  _622
REMARK  241  A    between atoms: _624  and  _626
REMARK  242  A    between atoms: _626  and  _627
REMARK  243  A    between atoms: _626  and  _629
REMARK  244  A    between atoms: _632  and  _634
REMARK  245  A    between atoms: _634  and  _635
REMARK  246  A    between atoms: _634  and  _637
REMARK  247  A    between atoms: _637  and  _638
REMARK  248  A    between atoms: _643  and  _645
REMARK  249  A    between atoms: _645  and  _646
REMARK  250  A    between atoms: _649  and  _651
REMARK  251  A    between atoms: _651  and  _652
REMARK  252  A    between atoms: _651  and  _654
REMARK  253  A    between atoms: _654  and  _655
REMARK  254  A    between atoms: _655  and  _656
REMARK  255  A    between atoms: _656  and  _657
REMARK  256  A    between atoms: _666  and  _668
REMARK  257  A    between atoms: _668  and  _669
REMARK  258  A    between atoms: _668  and  _671
REMARK  259  A    between atoms: _671  and  _672
REMARK  260  A    between atoms: _675  and  _677
REMARK  261  A    between atoms: _677  and  _678
REMARK  262  A    between atoms: _677  and  _680
REMARK  263  A    between atoms: _680  and  _681
REMARK  264  A    between atoms: _684  and  _686
REMARK  265  A    between atoms: _686  and  _687
REMARK  266  A    between atoms: _686  and  _689
REMARK  267  A    between atoms: _689  and  _690
REMARK                            x       y       z     vdW  Elec       q    Type
REMARK                         _______ _______ _______ _____ _____    ______ ____
ROOT
ATOM      1  O   HOH     1       1.512  14.823  11.351  0.00  0.00    +0.000 OA
ENDROOT
TORSDOF 0
REMARK  Name = ../refined-set-2016/2olb/2olb_pocket.pdb
REMARK  267 active torsions:
REMARK  status: ('A' for Active; 'I' for Inactive)
REMARK    1  A    between atoms: _1  and  _3
REMARK    2  A    between atoms: _3  and  _4
REMARK    3  A    between atoms: _3  and  _6
REMARK    4  A    between atoms: _6  and  _7
REMARK    5  A    between atoms: _12  and  _14
REMARK    6  A    between atoms: _14  and  _15
REMARK    7  A    between atoms: _17  and  _19
REMARK    8  A    between atoms: _19  and  _20
REMARK    9  A    between atoms: _19  and  _22
REMARK   10  A    between atoms: _22  and  _23
REMARK   11  A    between atoms: _23  and  _24
REMARK   12  A    between atoms: _29  and  _31
REMARK   13  A    between atoms: _31  and  _32
REMARK   14  A    between atoms: _31  and  _34
REMARK   15  A    between atoms: _34  and  _35
REMARK   16  A    between atoms: _38  and  _40
REMARK   17  A    between atoms: _40  and  _41
REMARK   18  A    between atoms: _40  and  _43
REMARK   19  A    between atoms: _43  and  _44
REMARK   20  A    between atoms: _44  and  _45
REMARK   21  A    between atoms: _48  and  _50
REMARK   22  A    between atoms: _50  and  _51
REMARK   23  A    between atoms: _53  and  _55
REMARK   24  A    between atoms: _55  and  _56
REMARK   25  A    between atoms: _55  and  _58
REMARK   26  A    between atoms: _62  and  _63
REMARK   27  A    between atoms: _68  and  _70
REMARK   28  A    between atoms: _70  and  _71
REMARK   29  A    between atoms: _70  and  _73
REMARK   30  A    between atoms: _73  and  _74
REMARK   31  A    between atoms: _74  and  _75
REMARK   32  A    between atoms: _78  and  _80
REMARK   33  A    between atoms: _80  and  _81
REMARK   34  A    between atoms: _80  and  _83
REMARK   35  A    between atoms: _83  and  _84
REMARK   36  A    between atoms: _86  and  _88
REMARK   37  A    between atoms: _88  and  _89
REMARK   38  A    between atoms: _88  and  _91
REMARK   39  A    between atoms: _91  and  _92
REMARK   40  A    between atoms: _97  and  _99
REMARK   41  A    between atoms: _99  and  _100
REMARK   42  A    between atoms: _99  and  _102
REMARK   43  A    between atoms: _102  and  _103
REMARK   44  A    between atoms: _103  and  _104
REMARK   45  A    between atoms: _104  and  _105
REMARK   46  A    between atoms: _115  and  _116
REMARK   47  A    between atoms: _121  and  _123
REMARK   48  A    between atoms: _123  and  _124
REMARK   49  A    between atoms: _123  and  _126
REMARK   50  A    between atoms: _126  and  _127
REMARK   51  A    between atoms: _132  and  _133
REMARK   52  A    between atoms: _135  and  _137
REMARK   53  A    between atoms: _137  and  _138
REMARK   54  A    between atoms: _137  and  _140
REMARK   55  A    between atoms: _140  and  _141
REMARK   56  A    between atoms: _146  and  _147
REMARK   57  A    between atoms: _149  and  _151
REMARK   58  A    between atoms: _151  and  _152
REMARK   59  A    between atoms: _151  and  _154
REMARK   60  A    between atoms: _157  and  _159
REMARK   61  A    between atoms: _159  and  _160
REMARK   62  A    between atoms: _159  and  _162
REMARK   63  A    between atoms: _162  and  _163
REMARK   64  A    between atoms: _169  and  _170
REMARK   65  A    between atoms: _175  and  _177
REMARK   66  A    between atoms: _177  and  _178
REMARK   67  A    between atoms: _177  and  _180
REMARK   68  A    between atoms: _180  and  _181
REMARK   69  A    between atoms: _183  and  _185
REMARK   70  A    between atoms: _185  and  _186
REMARK   71  A    between atoms: _185  and  _188
REMARK   72  A    between atoms: _188  and  _189
REMARK   73  A    between atoms: _189  and  _190
REMARK   74  A    between atoms: _193  and  _195
REMARK   75  A    between atoms: _195  and  _196
REMARK   76  A    between atoms: _195  and  _198
REMARK   77  A    between atoms: _198  and  _199
REMARK   78  A    between atoms: _204  and  _205
REMARK   79  A    between atoms: _207  and  _209
REMARK   80  A    between atoms: _209  and  _210
REMARK   81  A    between atoms: _209  and  _212
REMARK   82  A    between atoms: _212  and  _213
REMARK   83  A    between atoms: _218  and  _220
REMARK   84  A    between atoms: _220  and  _221
REMARK   85  A    between atoms: _220  and  _223
REMARK   86  A    between atoms: _223  and  _224
REMARK   87  A    between atoms: _229  and  _231
REMARK   88  A    between atoms: _231  and  _232
REMARK   89  A    between atoms: _231  and  _234
REMARK   90  A    between atoms: _234  and  _235
REMARK   91  A    between atoms: _235  and  _236
REMARK   92  A    between atoms: _238  and  _240
REMARK   93  A    between atoms: _240  and  _241
REMARK   94  A    between atoms: _240  and  _243
REMARK   95  A    between atoms: _243  and  _244
REMARK   96  A    between atoms: _249  and  _250
REMARK   97  A    between atoms: _252  and  _254
REMARK   98  A    between atoms: _254  and  _255
REMARK   99  A    between atoms: _254  and  _257
REMARK  100  A    between atoms: _257  and  _258
REMARK  101  A    between atoms: _261  and  _263
REMARK  102  A    between atoms: _263  and  _264
REMARK  103  A    between atoms: _263  and  _266
REMARK  104  A    between atoms: _266  and  _267
REMARK  105  A    between atoms: _267  and  _484
REMARK  106  A    between atoms: _268  and  _270
REMARK  107  A    between atoms: _270  and  _271
REMARK  108  A    between atoms: _270  and  _273
REMARK  109  A    between atoms: _273  and  _274
REMARK  110  A    between atoms: _277  and  _279
REMARK  111  A    between atoms: _279  and  _280
REMARK  112  A    between atoms: _279  and  _282
REMARK  113  A    between atoms: _282  and  _283
REMARK  114  A    between atoms: _288  and  _289
REMARK  115  A    between atoms: _291  and  _293
REMARK  116  A    between atoms: _293  and  _294
REMARK  117  A    between atoms: _293  and  _296
REMARK  118  A    between atoms: _296  and  _297
REMARK  119  A    between atoms: _302  and  _303
REMARK  120  A    between atoms: _305  and  _307
REMARK  121  A    between atoms: _307  and  _308
REMARK  122  A    between atoms: _307  and  _310
REMARK  123  A    between atoms: _310  and  _311
REMARK  124  A    between atoms: _311  and  _312
REMARK  125  A    between atoms: _315  and  _317
REMARK  126  A    between atoms: _317  and  _318
REMARK  127  A    between atoms: _317  and  _320
REMARK  128  A    between atoms: _320  and  _321
REMARK  129  A    between atoms: _326  and  _327
REMARK  130  A    between atoms: _329  and  _331
REMARK  131  A    between atoms: _331  and  _332
REMARK  132  A    between atoms: _331  and  _334
REMARK  133  A    between atoms: _334  and  _335
REMARK  134  A    between atoms: _340  and  _342
REMARK  135  A    between atoms: _342  and  _343
REMARK  136  A    between atoms: _342  and  _345
REMARK  137  A    between atoms: _345  and  _346
REMARK  138  A    between atoms: _349  and  _351
REMARK  139  A    between atoms: _351  and  _352
REMARK  140  A    between atoms: _351  and  _354
REMARK  141  A    between atoms: _354  and  _355
REMARK  142  A    between atoms: _360  and  _362
REMARK  143  A    between atoms: _362  and  _363
REMARK  144  A    between atoms: _362  and  _365
REMARK  145  A    between atoms: _365  and  _366
REMARK  146  A    between atoms: _376  and  _378
REMARK  147  A    between atoms: _378  and  _379
REMARK  148  A    between atoms: _378  and  _381
REMARK  149  A    between atoms: _381  and  _382
REMARK  150  A    between atoms: _388  and  _390
REMARK  151  A    between atoms: _390  and  _391
REMARK  152  A    between atoms: _390  and  _393
REMARK  153  A    between atoms: _393  and  _394
REMARK  154  A    between atoms: _397  and  _399
REMARK  155  A    between atoms: _399  and  _400
REMARK  156  A    between atoms: _399  and  _402
REMARK  157  A    between atoms: _402  and  _403
REMARK  158  A    between atoms: _406  and  _408
REMARK  159  A    between atoms: _408  and  _409
REMARK  160  A    between atoms: _408  and  _411
REMARK  161  A    between atoms: _411  and  _412
REMARK  162  A    between atoms: _412  and  _413
REMARK  163  A    between atoms: _413  and  _414
REMARK  164  A    between atoms: _423  and  _425
REMARK  165  A    between atoms: _425  and  _426
REMARK  166  A    between atoms: _425  and  _428
REMARK  167  A    between atoms: _428  and  _429
REMARK  168  A    between atoms: _434  and  _436
REMARK  169  A    between atoms: _436  and  _437
REMARK  170  A    between atoms: _436  and  _439
REMARK  171  A    between atoms: _439  and  _440
REMARK  172  A    between atoms: _440  and  _441
REMARK  173  A    between atoms: _441  and  _442
REMARK  174  A    between atoms: _451  and  _453
REMARK  175  A    between atoms: _453  and  _454
REMARK  176  A    between atoms: _457  and  _459
REMARK  177  A    between atoms: _459  and  _460
REMARK  178  A    between atoms: _462  and  _464
REMARK  179  A    between atoms: _464  and  _465
REMARK  180  A    between atoms: _464  and  _467
REMARK  181  A    between atoms: _467  and  _468
REMARK  182  A    between atoms: _478  and  _480
REMARK  183  A    between atoms: _480  and  _481
REMARK  184  A    between atoms: _480  and  _483
REMARK  185  A    between atoms: _483  and  _484
REMARK  186  A    between atoms: _485  and  _487
REMARK  187  A    between atoms: _487  and  _488
REMARK  188  A    between atoms: _491  and  _493
REMARK  189  A    between atoms: _493  and  _494
REMARK  190  A    between atoms: _493  and  _496
REMARK  191  A    between atoms: _496  and  _497
REMARK  192  A    between atoms: _500  and  _502
REMARK  193  A    between atoms: _502  and  _503
REMARK  194  A    between atoms: _502  and  _505
REMARK  195  A    between atoms: _505  and  _506
REMARK  196  A    between atoms: _511  and  _512
REMARK  197  A    between atoms: _514  and  _516
REMARK  198  A    between atoms: _516  and  _517
REMARK  199  A    between atoms: _516  and  _519
REMARK  200  A    between atoms: _519  and  _520
REMARK  201  A    between atoms: _522  and  _524
REMARK  202  A    between atoms: _524  and  _525
REMARK  203  A    between atoms: _524  and  _527
REMARK  204  A    between atoms: _527  and  _528
REMARK  205  A    between atoms: _534  and  _536
REMARK  206  A    between atoms: _536  and  _537
REMARK  207  A    between atoms: _536  and  _539
REMARK  208  A    between atoms: _539  and  _540
REMARK  209  A    between atoms: _543  and  _545
REMARK  210  A    between atoms: _545  and  _546
REMARK  211  A    between atoms: _545  and  _548
REMARK  212  A    between atoms: _548  and  _549
REMARK  213  A    between atoms: _551  and  _553
REMARK  214  A    between atoms: _553  and  _554
REMARK  215  A    between atoms: _553  and  _556
REMARK  216  A    between atoms: _556  and  _557
REMARK  217  A    between atoms: _559  and  _561
REMARK  218  A    between atoms: _561  and  _562
REMARK  219  A    between atoms: _561  and  _564
REMARK  220  A    between atoms: _564  and  _565
REMARK  221  A    between atoms: _570  and  _572
REMARK  222  A    between atoms: _572  and  _573
REMARK  223  A    between atoms: _572  and  _575
REMARK  224  A    between atoms: _575  and  _576
REMARK  225  A    between atoms: _581  and  _583
REMARK  226  A    between atoms: _583  and  _584
REMARK  227  A    between atoms: _583  and  _586
REMARK  228  A    between atoms: _586  and  _587
REMARK  229  A    between atoms: _590  and  _592
REMARK  230  A    between atoms: _592  and  _593
REMARK  231  A    between atoms: _596  and  _598
REMARK  232  A    between atoms: _598  and  _599
REMARK  233  A    between atoms: _598  and  _601
REMARK  234  A    between atoms: _601  and  _602
REMARK  235  A    between atoms: _607  and  _608
REMARK  236  A    between atoms: _610  and  _612
REMARK  237  A    between atoms: _612  and  _613
REMARK  238  A    between atoms: _612  and  _615
REMARK  239  A    between atoms: _615  and  _616
REMARK  240  A    between atoms: _621  and  _622
REMARK  241  A    between atoms: _624  and  _626
REMARK  242  A    between atoms: _626  and  _627
REMARK  243  A    between atoms: _626  and  _629
REMARK  244  A    between atoms: _632  and  _634
REMARK  245  A    between atoms: _634  and  _635
REMARK  246  A    between atoms: _634  and  _637
REMARK  247  A    between atoms: _637  and  _638
REMARK  248  A    between atoms: _643  and  _645
REMARK  249  A    between atoms: _645  and  _646
REMARK  250  A    between atoms: _649  and  _651
REMARK  251  A    between atoms: _651  and  _652
REMARK  252  A    between atoms: _651  and  _654
REMARK  253  A    between atoms: _654  and  _655
REMARK  254  A    between atoms: _655  and  _656
REMARK  255  A    between atoms: _656  and  _657
REMARK  256  A    between atoms: _666  and  _668
REMARK  257  A    between atoms: _668  and  _669
REMARK  258  A    between atoms: _668  and  _671
REMARK  259  A    between atoms: _671  and  _672
REMARK  260  A    between atoms: _675  and  _677
REMARK  261  A    between atoms: _677  and  _678
REMARK  262  A    between atoms: _677  and  _680
REMARK  263  A    between atoms: _680  and  _681
REMARK  264  A    between atoms: _684  and  _686
REMARK  265  A    between atoms: _686  and  _687
REMARK  266  A    between atoms: _686  and  _689
REMARK  267  A    between atoms: _689  and  _690
REMARK                            x       y       z     vdW  Elec       q    Type
REMARK                         _______ _______ _______ _____ _____    ______ ____
ROOT
ATOM      1  O   HOH     1       1.764  15.083   8.584  0.00  0.00    +0.000 OA
ENDROOT
TORSDOF 0
REMARK  Name = ../refined-set-2016/2olb/2olb_pocket.pdb
REMARK  267 active torsions:
REMARK  status: ('A' for Active; 'I' for Inactive)
REMARK    1  A    between atoms: _1  and  _3
REMARK    2  A    between atoms: _3  and  _4
REMARK    3  A    between atoms: _3  and  _6
REMARK    4  A    between atoms: _6  and  _7
REMARK    5  A    between atoms: _12  and  _14
REMARK    6  A    between atoms: _14  and  _15
REMARK    7  A    between atoms: _17  and  _19
REMARK    8  A    between atoms: _19  and  _20
REMARK    9  A    between atoms: _19  and  _22
REMARK   10  A    between atoms: _22  and  _23
REMARK   11  A    between atoms: _23  and  _24
REMARK   12  A    between atoms: _29  and  _31
REMARK   13  A    between atoms: _31  and  _32
REMARK   14  A    between atoms: _31  and  _34
REMARK   15  A    between atoms: _34  and  _35
REMARK   16  A    between atoms: _38  and  _40
REMARK   17  A    between atoms: _40  and  _41
REMARK   18  A    between atoms: _40  and  _43
REMARK   19  A    between atoms: _43  and  _44
REMARK   20  A    between atoms: _44  and  _45
REMARK   21  A    between atoms: _48  and  _50
REMARK   22  A    between atoms: _50  and  _51
REMARK   23  A    between atoms: _53  and  _55
REMARK   24  A    between atoms: _55  and  _56
REMARK   25  A    between atoms: _55  and  _58
REMARK   26  A    between atoms: _62  and  _63
REMARK   27  A    between atoms: _68  and  _70
REMARK   28  A    between atoms: _70  and  _71
REMARK   29  A    between atoms: _70  and  _73
REMARK   30  A    between atoms: _73  and  _74
REMARK   31  A    between atoms: _74  and  _75
REMARK   32  A    between atoms: _78  and  _80
REMARK   33  A    between atoms: _80  and  _81
REMARK   34  A    between atoms: _80  and  _83
REMARK   35  A    between atoms: _83  and  _84
REMARK   36  A    between atoms: _86  and  _88
REMARK   37  A    between atoms: _88  and  _89
REMARK   38  A    between atoms: _88  and  _91
REMARK   39  A    between atoms: _91  and  _92
REMARK   40  A    between atoms: _97  and  _99
REMARK   41  A    between atoms: _99  and  _100
REMARK   42  A    between atoms: _99  and  _102
REMARK   43  A    between atoms: _102  and  _103
REMARK   44  A    between atoms: _103  and  _104
REMARK   45  A    between atoms: _104  and  _105
REMARK   46  A    between atoms: _115  and  _116
REMARK   47  A    between atoms: _121  and  _123
REMARK   48  A    between atoms: _123  and  _124
REMARK   49  A    between atoms: _123  and  _126
REMARK   50  A    between atoms: _126  and  _127
REMARK   51  A    between atoms: _132  and  _133
REMARK   52  A    between atoms: _135  and  _137
REMARK   53  A    between atoms: _137  and  _138
REMARK   54  A    between atoms: _137  and  _140
REMARK   55  A    between atoms: _140  and  _141
REMARK   56  A    between atoms: _146  and  _147
REMARK   57  A    between atoms: _149  and  _151
REMARK   58  A    between atoms: _151  and  _152
REMARK   59  A    between atoms: _151  and  _154
REMARK   60  A    between atoms: _157  and  _159
REMARK   61  A    between atoms: _159  and  _160
REMARK   62  A    between atoms: _159  and  _162
REMARK   63  A    between atoms: _162  and  _163
REMARK   64  A    between atoms: _169  and  _170
REMARK   65  A    between atoms: _175  and  _177
REMARK   66  A    between atoms: _177  and  _178
REMARK   67  A    between atoms: _177  and  _180
REMARK   68  A    between atoms: _180  and  _181
REMARK   69  A    between atoms: _183  and  _185
REMARK   70  A    between atoms: _185  and  _186
REMARK   71  A    between atoms: _185  and  _188
REMARK   72  A    between atoms: _188  and  _189
REMARK   73  A    between atoms: _189  and  _190
REMARK   74  A    between atoms: _193  and  _195
REMARK   75  A    between atoms: _195  and  _196
REMARK   76  A    between atoms: _195  and  _198
REMARK   77  A    between atoms: _198  and  _199
REMARK   78  A    between atoms: _204  and  _205
REMARK   79  A    between atoms: _207  and  _209
REMARK   80  A    between atoms: _209  and  _210
REMARK   81  A    between atoms: _209  and  _212
REMARK   82  A    between atoms: _212  and  _213
REMARK   83  A    between atoms: _218  and  _220
REMARK   84  A    between atoms: _220  and  _221
REMARK   85  A    between atoms: _220  and  _223
REMARK   86  A    between atoms: _223  and  _224
REMARK   87  A    between atoms: _229  and  _231
REMARK   88  A    between atoms: _231  and  _232
REMARK   89  A    between atoms: _231  and  _234
REMARK   90  A    between atoms: _234  and  _235
REMARK   91  A    between atoms: _235  and  _236
REMARK   92  A    between atoms: _238  and  _240
REMARK   93  A    between atoms: _240  and  _241
REMARK   94  A    between atoms: _240  and  _243
REMARK   95  A    between atoms: _243  and  _244
REMARK   96  A    between atoms: _249  and  _250
REMARK   97  A    between atoms: _252  and  _254
REMARK   98  A    between atoms: _254  and  _255
REMARK   99  A    between atoms: _254  and  _257
REMARK  100  A    between atoms: _257  and  _258
REMARK  101  A    between atoms: _261  and  _263
REMARK  102  A    between atoms: _263  and  _264
REMARK  103  A    between atoms: _263  and  _266
REMARK  104  A    between atoms: _266  and  _267
REMARK  105  A    between atoms: _267  and  _484
REMARK  106  A    between atoms: _268  and  _270
REMARK  107  A    between atoms: _270  and  _271
REMARK  108  A    between atoms: _270  and  _273
REMARK  109  A    between atoms: _273  and  _274
REMARK  110  A    between atoms: _277  and  _279
REMARK  111  A    between atoms: _279  and  _280
REMARK  112  A    between atoms: _279  and  _282
REMARK  113  A    between atoms: _282  and  _283
REMARK  114  A    between atoms: _288  and  _289
REMARK  115  A    between atoms: _291  and  _293
REMARK  116  A    between atoms: _293  and  _294
REMARK  117  A    between atoms: _293  and  _296
REMARK  118  A    between atoms: _296  and  _297
REMARK  119  A    between atoms: _302  and  _303
REMARK  120  A    between atoms: _305  and  _307
REMARK  121  A    between atoms: _307  and  _308
REMARK  122  A    between atoms: _307  and  _310
REMARK  123  A    between atoms: _310  and  _311
REMARK  124  A    between atoms: _311  and  _312
REMARK  125  A    between atoms: _315  and  _317
REMARK  126  A    between atoms: _317  and  _318
REMARK  127  A    between atoms: _317  and  _320
REMARK  128  A    between atoms: _320  and  _321
REMARK  129  A    between atoms: _326  and  _327
REMARK  130  A    between atoms: _329  and  _331
REMARK  131  A    between atoms: _331  and  _332
REMARK  132  A    between atoms: _331  and  _334
REMARK  133  A    between atoms: _334  and  _335
REMARK  134  A    between atoms: _340  and  _342
REMARK  135  A    between atoms: _342  and  _343
REMARK  136  A    between atoms: _342  and  _345
REMARK  137  A    between atoms: _345  and  _346
REMARK  138  A    between atoms: _349  and  _351
REMARK  139  A    between atoms: _351  and  _352
REMARK  140  A    between atoms: _351  and  _354
REMARK  141  A    between atoms: _354  and  _355
REMARK  142  A    between atoms: _360  and  _362
REMARK  143  A    between atoms: _362  and  _363
REMARK  144  A    between atoms: _362  and  _365
REMARK  145  A    between atoms: _365  and  _366
REMARK  146  A    between atoms: _376  and  _378
REMARK  147  A    between atoms: _378  and  _379
REMARK  148  A    between atoms: _378  and  _381
REMARK  149  A    between atoms: _381  and  _382
REMARK  150  A    between atoms: _388  and  _390
REMARK  151  A    between atoms: _390  and  _391
REMARK  152  A    between atoms: _390  and  _393
REMARK  153  A    between atoms: _393  and  _394
REMARK  154  A    between atoms: _397  and  _399
REMARK  155  A    between atoms: _399  and  _400
REMARK  156  A    between atoms: _399  and  _402
REMARK  157  A    between atoms: _402  and  _403
REMARK  158  A    between atoms: _406  and  _408
REMARK  159  A    between atoms: _408  and  _409
REMARK  160  A    between atoms: _408  and  _411
REMARK  161  A    between atoms: _411  and  _412
REMARK  162  A    between atoms: _412  and  _413
REMARK  163  A    between atoms: _413  and  _414
REMARK  164  A    between atoms: _423  and  _425
REMARK  165  A    between atoms: _425  and  _426
REMARK  166  A    between atoms: _425  and  _428
REMARK  167  A    between atoms: _428  and  _429
REMARK  168  A    between atoms: _434  and  _436
REMARK  169  A    between atoms: _436  and  _437
REMARK  170  A    between atoms: _436  and  _439
REMARK  171  A    between atoms: _439  and  _440
REMARK  172  A    between atoms: _440  and  _441
REMARK  173  A    between atoms: _441  and  _442
REMARK  174  A    between atoms: _451  and  _453
REMARK  175  A    between atoms: _453  and  _454
REMARK  176  A    between atoms: _457  and  _459
REMARK  177  A    between atoms: _459  and  _460
REMARK  178  A    between atoms: _462  and  _464
REMARK  179  A    between atoms: _464  and  _465
REMARK  180  A    between atoms: _464  and  _467
REMARK  181  A    between atoms: _467  and  _468
REMARK  182  A    between atoms: _478  and  _480
REMARK  183  A    between atoms: _480  and  _481
REMARK  184  A    between atoms: _480  and  _483
REMARK  185  A    between atoms: _483  and  _484
REMARK  186  A    between atoms: _485  and  _487
REMARK  187  A    between atoms: _487  and  _488
REMARK  188  A    between atoms: _491  and  _493
REMARK  189  A    between atoms: _493  and  _494
REMARK  190  A    between atoms: _493  and  _496
REMARK  191  A    between atoms: _496  and  _497
REMARK  192  A    between atoms: _500  and  _502
REMARK  193  A    between atoms: _502  and  _503
REMARK  194  A    between atoms: _502  and  _505
REMARK  195  A    between atoms: _505  and  _506
REMARK  196  A    between atoms: _511  and  _512
REMARK  197  A    between atoms: _514  and  _516
REMARK  198  A    between atoms: _516  and  _517
REMARK  199  A    between atoms: _516  and  _519
REMARK  200  A    between atoms: _519  and  _520
REMARK  201  A    between atoms: _522  and  _524
REMARK  202  A    between atoms: _524  and  _525
REMARK  203  A    between atoms: _524  and  _527
REMARK  204  A    between atoms: _527  and  _528
REMARK  205  A    between atoms: _534  and  _536
REMARK  206  A    between atoms: _536  and  _537
REMARK  207  A    between atoms: _536  and  _539
REMARK  208  A    between atoms: _539  and  _540
REMARK  209  A    between atoms: _543  and  _545
REMARK  210  A    between atoms: _545  and  _546
REMARK  211  A    between atoms: _545  and  _548
REMARK  212  A    between atoms: _548  and  _549
REMARK  213  A    between atoms: _551  and  _553
REMARK  214  A    between atoms: _553  and  _554
REMARK  215  A    between atoms: _553  and  _556
REMARK  216  A    between atoms: _556  and  _557
REMARK  217  A    between atoms: _559  and  _561
REMARK  218  A    between atoms: _561  and  _562
REMARK  219  A    between atoms: _561  and  _564
REMARK  220  A    between atoms: _564  and  _565
REMARK  221  A    between atoms: _570  and  _572
REMARK  222  A    between atoms: _572  and  _573
REMARK  223  A    between atoms: _572  and  _575
REMARK  224  A    between atoms: _575  and  _576
REMARK  225  A    between atoms: _581  and  _583
REMARK  226  A    between atoms: _583  and  _584
REMARK  227  A    between atoms: _583  and  _586
REMARK  228  A    between atoms: _586  and  _587
REMARK  229  A    between atoms: _590  and  _592
REMARK  230  A    between atoms: _592  and  _593
REMARK  231  A    between atoms: _596  and  _598
REMARK  232  A    between atoms: _598  and  _599
REMARK  233  A    between atoms: _598  and  _601
REMARK  234  A    between atoms: _601  and  _602
REMARK  235  A    between atoms: _607  and  _608
REMARK  236  A    between atoms: _610  and  _612
REMARK  237  A    between atoms: _612  and  _613
REMARK  238  A    between atoms: _612  and  _615
REMARK  239  A    between atoms: _615  and  _616
REMARK  240  A    between atoms: _621  and  _622
REMARK  241  A    between atoms: _624  and  _626
REMARK  242  A    between atoms: _626  and  _627
REMARK  243  A    between atoms: _626  and  _629
REMARK  244  A    between atoms: _632  and  _634
REMARK  245  A    between atoms: _634  and  _635
REMARK  246  A    between atoms: _634  and  _637
REMARK  247  A    between atoms: _637  and  _638
REMARK  248  A    between atoms: _643  and  _645
REMARK  249  A    between atoms: _645  and  _646
REMARK  250  A    between atoms: _649  and  _651
REMARK  251  A    between atoms: _651  and  _652
REMARK  252  A    between atoms: _651  and  _654
REMARK  253  A    between atoms: _654  and  _655
REMARK  254  A    between atoms: _655  and  _656
REMARK  255  A    between atoms: _656  and  _657
REMARK  256  A    between atoms: _666  and  _668
REMARK  257  A    between atoms: _668  and  _669
REMARK  258  A    between atoms: _668  and  _671
REMARK  259  A    between atoms: _671  and  _672
REMARK  260  A    between atoms: _675  and  _677
REMARK  261  A    between atoms: _677  and  _678
REMARK  262  A    between atoms: _677  and  _680
REMARK  263  A    between atoms: _680  and  _681
REMARK  264  A    between atoms: _684  and  _686
REMARK  265  A    between atoms: _686  and  _687
REMARK  266  A    between atoms: _686  and  _689
REMARK  267  A    between atoms: _689  and  _690
REMARK                            x       y       z     vdW  Elec       q    Type
REMARK                         _______ _______ _______ _____ _____    ______ ____
ROOT
ATOM      1  O   HOH     1       8.691  13.060   9.805  0.00  0.00    +0.000 OA
ENDROOT
TORSDOF 0
REMARK  Name = ../refined-set-2016/2olb/2olb_pocket.pdb
REMARK  267 active torsions:
REMARK  status: ('A' for Active; 'I' for Inactive)
REMARK    1  A    between atoms: _1  and  _3
REMARK    2  A    between atoms: _3  and  _4
REMARK    3  A    between atoms: _3  and  _6
REMARK    4  A    between atoms: _6  and  _7
REMARK    5  A    between atoms: _12  and  _14
REMARK    6  A    between atoms: _14  and  _15
REMARK    7  A    between atoms: _17  and  _19
REMARK    8  A    between atoms: _19  and  _20
REMARK    9  A    between atoms: _19  and  _22
REMARK   10  A    between atoms: _22  and  _23
REMARK   11  A    between atoms: _23  and  _24
REMARK   12  A    between atoms: _29  and  _31
REMARK   13  A    between atoms: _31  and  _32
REMARK   14  A    between atoms: _31  and  _34
REMARK   15  A    between atoms: _34  and  _35
REMARK   16  A    between atoms: _38  and  _40
REMARK   17  A    between atoms: _40  and  _41
REMARK   18  A    between atoms: _40  and  _43
REMARK   19  A    between atoms: _43  and  _44
REMARK   20  A    between atoms: _44  and  _45
REMARK   21  A    between atoms: _48  and  _50
REMARK   22  A    between atoms: _50  and  _51
REMARK   23  A    between atoms: _53  and  _55
REMARK   24  A    between atoms: _55  and  _56
REMARK   25  A    between atoms: _55  and  _58
REMARK   26  A    between atoms: _62  and  _63
REMARK   27  A    between atoms: _68  and  _70
REMARK   28  A    between atoms: _70  and  _71
REMARK   29  A    between atoms: _70  and  _73
REMARK   30  A    between atoms: _73  and  _74
REMARK   31  A    between atoms: _74  and  _75
REMARK   32  A    between atoms: _78  and  _80
REMARK   33  A    between atoms: _80  and  _81
REMARK   34  A    between atoms: _80  and  _83
REMARK   35  A    between atoms: _83  and  _84
REMARK   36  A    between atoms: _86  and  _88
REMARK   37  A    between atoms: _88  and  _89
REMARK   38  A    between atoms: _88  and  _91
REMARK   39  A    between atoms: _91  and  _92
REMARK   40  A    between atoms: _97  and  _99
REMARK   41  A    between atoms: _99  and  _100
REMARK   42  A    between atoms: _99  and  _102
REMARK   43  A    between atoms: _102  and  _103
REMARK   44  A    between atoms: _103  and  _104
REMARK   45  A    between atoms: _104  and  _105
REMARK   46  A    between atoms: _115  and  _116
REMARK   47  A    between atoms: _121  and  _123
REMARK   48  A    between atoms: _123  and  _124
REMARK   49  A    between atoms: _123  and  _126
REMARK   50  A    between atoms: _126  and  _127
REMARK   51  A    between atoms: _132  and  _133
REMARK   52  A    between atoms: _135  and  _137
REMARK   53  A    between atoms: _137  and  _138
REMARK   54  A    between atoms: _137  and  _140
REMARK   55  A    between atoms: _140  and  _141
REMARK   56  A    between atoms: _146  and  _147
REMARK   57  A    between atoms: _149  and  _151
REMARK   58  A    between atoms: _151  and  _152
REMARK   59  A    between atoms: _151  and  _154
REMARK   60  A    between atoms: _157  and  _159
REMARK   61  A    between atoms: _159  and  _160
REMARK   62  A    between atoms: _159  and  _162
REMARK   63  A    between atoms: _162  and  _163
REMARK   64  A    between atoms: _169  and  _170
REMARK   65  A    between atoms: _175  and  _177
REMARK   66  A    between atoms: _177  and  _178
REMARK   67  A    between atoms: _177  and  _180
REMARK   68  A    between atoms: _180  and  _181
REMARK   69  A    between atoms: _183  and  _185
REMARK   70  A    between atoms: _185  and  _186
REMARK   71  A    between atoms: _185  and  _188
REMARK   72  A    between atoms: _188  and  _189
REMARK   73  A    between atoms: _189  and  _190
REMARK   74  A    between atoms: _193  and  _195
REMARK   75  A    between atoms: _195  and  _196
REMARK   76  A    between atoms: _195  and  _198
REMARK   77  A    between atoms: _198  and  _199
REMARK   78  A    between atoms: _204  and  _205
REMARK   79  A    between atoms: _207  and  _209
REMARK   80  A    between atoms: _209  and  _210
REMARK   81  A    between atoms: _209  and  _212
REMARK   82  A    between atoms: _212  and  _213
REMARK   83  A    between atoms: _218  and  _220
REMARK   84  A    between atoms: _220  and  _221
REMARK   85  A    between atoms: _220  and  _223
REMARK   86  A    between atoms: _223  and  _224
REMARK   87  A    between atoms: _229  and  _231
REMARK   88  A    between atoms: _231  and  _232
REMARK   89  A    between atoms: _231  and  _234
REMARK   90  A    between atoms: _234  and  _235
REMARK   91  A    between atoms: _235  and  _236
REMARK   92  A    between atoms: _238  and  _240
REMARK   93  A    between atoms: _240  and  _241
REMARK   94  A    between atoms: _240  and  _243
REMARK   95  A    between atoms: _243  and  _244
REMARK   96  A    between atoms: _249  and  _250
REMARK   97  A    between atoms: _252  and  _254
REMARK   98  A    between atoms: _254  and  _255
REMARK   99  A    between atoms: _254  and  _257
REMARK  100  A    between atoms: _257  and  _258
REMARK  101  A    between atoms: _261  and  _263
REMARK  102  A    between atoms: _263  and  _264
REMARK  103  A    between atoms: _263  and  _266
REMARK  104  A    between atoms: _266  and  _267
REMARK  105  A    between atoms: _267  and  _484
REMARK  106  A    between atoms: _268  and  _270
REMARK  107  A    between atoms: _270  and  _271
REMARK  108  A    between atoms: _270  and  _273
REMARK  109  A    between atoms: _273  and  _274
REMARK  110  A    between atoms: _277  and  _279
REMARK  111  A    between atoms: _279  and  _280
REMARK  112  A    between atoms: _279  and  _282
REMARK  113  A    between atoms: _282  and  _283
REMARK  114  A    between atoms: _288  and  _289
REMARK  115  A    between atoms: _291  and  _293
REMARK  116  A    between atoms: _293  and  _294
REMARK  117  A    between atoms: _293  and  _296
REMARK  118  A    between atoms: _296  and  _297
REMARK  119  A    between atoms: _302  and  _303
REMARK  120  A    between atoms: _305  and  _307
REMARK  121  A    between atoms: _307  and  _308
REMARK  122  A    between atoms: _307  and  _310
REMARK  123  A    between atoms: _310  and  _311
REMARK  124  A    between atoms: _311  and  _312
REMARK  125  A    between atoms: _315  and  _317
REMARK  126  A    between atoms: _317  and  _318
REMARK  127  A    between atoms: _317  and  _320
REMARK  128  A    between atoms: _320  and  _321
REMARK  129  A    between atoms: _326  and  _327
REMARK  130  A    between atoms: _329  and  _331
REMARK  131  A    between atoms: _331  and  _332
REMARK  132  A    between atoms: _331  and  _334
REMARK  133  A    between atoms: _334  and  _335
REMARK  134  A    between atoms: _340  and  _342
REMARK  135  A    between atoms: _342  and  _343
REMARK  136  A    between atoms: _342  and  _345
REMARK  137  A    between atoms: _345  and  _346
REMARK  138  A    between atoms: _349  and  _351
REMARK  139  A    between atoms: _351  and  _352
REMARK  140  A    between atoms: _351  and  _354
REMARK  141  A    between atoms: _354  and  _355
REMARK  142  A    between atoms: _360  and  _362
REMARK  143  A    between atoms: _362  and  _363
REMARK  144  A    between atoms: _362  and  _365
REMARK  145  A    between atoms: _365  and  _366
REMARK  146  A    between atoms: _376  and  _378
REMARK  147  A    between atoms: _378  and  _379
REMARK  148  A    between atoms: _378  and  _381
REMARK  149  A    between atoms: _381  and  _382
REMARK  150  A    between atoms: _388  and  _390
REMARK  151  A    between atoms: _390  and  _391
REMARK  152  A    between atoms: _390  and  _393
REMARK  153  A    between atoms: _393  and  _394
REMARK  154  A    between atoms: _397  and  _399
REMARK  155  A    between atoms: _399  and  _400
REMARK  156  A    between atoms: _399  and  _402
REMARK  157  A    between atoms: _402  and  _403
REMARK  158  A    between atoms: _406  and  _408
REMARK  159  A    between atoms: _408  and  _409
REMARK  160  A    between atoms: _408  and  _411
REMARK  161  A    between atoms: _411  and  _412
REMARK  162  A    between atoms: _412  and  _413
REMARK  163  A    between atoms: _413  and  _414
REMARK  164  A    between atoms: _423  and  _425
REMARK  165  A    between atoms: _425  and  _426
REMARK  166  A    between atoms: _425  and  _428
REMARK  167  A    between atoms: _428  and  _429
REMARK  168  A    between atoms: _434  and  _436
REMARK  169  A    between atoms: _436  and  _437
REMARK  170  A    between atoms: _436  and  _439
REMARK  171  A    between atoms: _439  and  _440
REMARK  172  A    between atoms: _440  and  _441
REMARK  173  A    between atoms: _441  and  _442
REMARK  174  A    between atoms: _451  and  _453
REMARK  175  A    between atoms: _453  and  _454
REMARK  176  A    between atoms: _457  and  _459
REMARK  177  A    between atoms: _459  and  _460
REMARK  178  A    between atoms: _462  and  _464
REMARK  179  A    between atoms: _464  and  _465
REMARK  180  A    between atoms: _464  and  _467
REMARK  181  A    between atoms: _467  and  _468
REMARK  182  A    between atoms: _478  and  _480
REMARK  183  A    between atoms: _480  and  _481
REMARK  184  A    between atoms: _480  and  _483
REMARK  185  A    between atoms: _483  and  _484
REMARK  186  A    between atoms: _485  and  _487
REMARK  187  A    between atoms: _487  and  _488
REMARK  188  A    between atoms: _491  and  _493
REMARK  189  A    between atoms: _493  and  _494
REMARK  190  A    between atoms: _493  and  _496
REMARK  191  A    between atoms: _496  and  _497
REMARK  192  A    between atoms: _500  and  _502
REMARK  193  A    between atoms: _502  and  _503
REMARK  194  A    between atoms: _502  and  _505
REMARK  195  A    between atoms: _505  and  _506
REMARK  196  A    between atoms: _511  and  _512
REMARK  197  A    between atoms: _514  and  _516
REMARK  198  A    between atoms: _516  and  _517
REMARK  199  A    between atoms: _516  and  _519
REMARK  200  A    between atoms: _519  and  _520
REMARK  201  A    between atoms: _522  and  _524
REMARK  202  A    between atoms: _524  and  _525
REMARK  203  A    between atoms: _524  and  _527
REMARK  204  A    between atoms: _527  and  _528
REMARK  205  A    between atoms: _534  and  _536
REMARK  206  A    between atoms: _536  and  _537
REMARK  207  A    between atoms: _536  and  _539
REMARK  208  A    between atoms: _539  and  _540
REMARK  209  A    between atoms: _543  and  _545
REMARK  210  A    between atoms: _545  and  _546
REMARK  211  A    between atoms: _545  and  _548
REMARK  212  A    between atoms: _548  and  _549
REMARK  213  A    between atoms: _551  and  _553
REMARK  214  A    between atoms: _553  and  _554
REMARK  215  A    between atoms: _553  and  _556
REMARK  216  A    between atoms: _556  and  _557
REMARK  217  A    between atoms: _559  and  _561
REMARK  218  A    between atoms: _561  and  _562
REMARK  219  A    between atoms: _561  and  _564
REMARK  220  A    between atoms: _564  and  _565
REMARK  221  A    between atoms: _570  and  _572
REMARK  222  A    between atoms: _572  and  _573
REMARK  223  A    between atoms: _572  and  _575
REMARK  224  A    between atoms: _575  and  _576
REMARK  225  A    between atoms: _581  and  _583
REMARK  226  A    between atoms: _583  and  _584
REMARK  227  A    between atoms: _583  and  _586
REMARK  228  A    between atoms: _586  and  _587
REMARK  229  A    between atoms: _590  and  _592
REMARK  230  A    between atoms: _592  and  _593
REMARK  231  A    between atoms: _596  and  _598
REMARK  232  A    between atoms: _598  and  _599
REMARK  233  A    between atoms: _598  and  _601
REMARK  234  A    between atoms: _601  and  _602
REMARK  235  A    between atoms: _607  and  _608
REMARK  236  A    between atoms: _610  and  _612
REMARK  237  A    between atoms: _612  and  _613
REMARK  238  A    between atoms: _612  and  _615
REMARK  239  A    between atoms: _615  and  _616
REMARK  240  A    between atoms: _621  and  _622
REMARK  241  A    between atoms: _624  and  _626
REMARK  242  A    between atoms: _626  and  _627
REMARK  243  A    between atoms: _626  and  _629
REMARK  244  A    between atoms: _632  and  _634
REMARK  245  A    between atoms: _634  and  _635
REMARK  246  A    between atoms: _634  and  _637
REMARK  247  A    between atoms: _637  and  _638
REMARK  248  A    between atoms: _643  and  _645
REMARK  249  A    between atoms: _645  and  _646
REMARK  250  A    between atoms: _649  and  _651
REMARK  251  A    between atoms: _651  and  _652
REMARK  252  A    between atoms: _651  and  _654
REMARK  253  A    between atoms: _654  and  _655
REMARK  254  A    between atoms: _655  and  _656
REMARK  255  A    between atoms: _656  and  _657
REMARK  256  A    between atoms: _666  and  _668
REMARK  257  A    between atoms: _668  and  _669
REMARK  258  A    between atoms: _668  and  _671
REMARK  259  A    between atoms: _671  and  _672
REMARK  260  A    between atoms: _675  and  _677
REMARK  261  A    between atoms: _677  and  _678
REMARK  262  A    between atoms: _677  and  _680
REMARK  263  A    between atoms: _680  and  _681
REMARK  264  A    between atoms: _684  and  _686
REMARK  265  A    between atoms: _686  and  _687
REMARK  266  A    between atoms: _686  and  _689
REMARK  267  A    between atoms: _689  and  _690
REMARK                            x       y       z     vdW  Elec       q    Type
REMARK                         _______ _______ _______ _____ _____    ______ ____
ROOT
ATOM      1  O   HOH     1      10.069  16.086   4.749  0.00  0.00    +0.000 OA
ENDROOT
TORSDOF 0
REMARK  Name = ../refined-set-2016/2olb/2olb_pocket.pdb
REMARK  267 active torsions:
REMARK  status: ('A' for Active; 'I' for Inactive)
REMARK    1  A    between atoms: _1  and  _3
REMARK    2  A    between atoms: _3  and  _4
REMARK    3  A    between atoms: _3  and  _6
REMARK    4  A    between atoms: _6  and  _7
REMARK    5  A    between atoms: _12  and  _14
REMARK    6  A    between atoms: _14  and  _15
REMARK    7  A    between atoms: _17  and  _19
REMARK    8  A    between atoms: _19  and  _20
REMARK    9  A    between atoms: _19  and  _22
REMARK   10  A    between atoms: _22  and  _23
REMARK   11  A    between atoms: _23  and  _24
REMARK   12  A    between atoms: _29  and  _31
REMARK   13  A    between atoms: _31  and  _32
REMARK   14  A    between atoms: _31  and  _34
REMARK   15  A    between atoms: _34  and  _35
REMARK   16  A    between atoms: _38  and  _40
REMARK   17  A    between atoms: _40  and  _41
REMARK   18  A    between atoms: _40  and  _43
REMARK   19  A    between atoms: _43  and  _44
REMARK   20  A    between atoms: _44  and  _45
REMARK   21  A    between atoms: _48  and  _50
REMARK   22  A    between atoms: _50  and  _51
REMARK   23  A    between atoms: _53  and  _55
REMARK   24  A    between atoms: _55  and  _56
REMARK   25  A    between atoms: _55  and  _58
REMARK   26  A    between atoms: _62  and  _63
REMARK   27  A    between atoms: _68  and  _70
REMARK   28  A    between atoms: _70  and  _71
REMARK   29  A    between atoms: _70  and  _73
REMARK   30  A    between atoms: _73  and  _74
REMARK   31  A    between atoms: _74  and  _75
REMARK   32  A    between atoms: _78  and  _80
REMARK   33  A    between atoms: _80  and  _81
REMARK   34  A    between atoms: _80  and  _83
REMARK   35  A    between atoms: _83  and  _84
REMARK   36  A    between atoms: _86  and  _88
REMARK   37  A    between atoms: _88  and  _89
REMARK   38  A    between atoms: _88  and  _91
REMARK   39  A    between atoms: _91  and  _92
REMARK   40  A    between atoms: _97  and  _99
REMARK   41  A    between atoms: _99  and  _100
REMARK   42  A    between atoms: _99  and  _102
REMARK   43  A    between atoms: _102  and  _103
REMARK   44  A    between atoms: _103  and  _104
REMARK   45  A    between atoms: _104  and  _105
REMARK   46  A    between atoms: _115  and  _116
REMARK   47  A    between atoms: _121  and  _123
REMARK   48  A    between atoms: _123  and  _124
REMARK   49  A    between atoms: _123  and  _126
REMARK   50  A    between atoms: _126  and  _127
REMARK   51  A    between atoms: _132  and  _133
REMARK   52  A    between atoms: _135  and  _137
REMARK   53  A    between atoms: _137  and  _138
REMARK   54  A    between atoms: _137  and  _140
REMARK   55  A    between atoms: _140  and  _141
REMARK   56  A    between atoms: _146  and  _147
REMARK   57  A    between atoms: _149  and  _151
REMARK   58  A    between atoms: _151  and  _152
REMARK   59  A    between atoms: _151  and  _154
REMARK   60  A    between atoms: _157  and  _159
REMARK   61  A    between atoms: _159  and  _160
REMARK   62  A    between atoms: _159  and  _162
REMARK   63  A    between atoms: _162  and  _163
REMARK   64  A    between atoms: _169  and  _170
REMARK   65  A    between atoms: _175  and  _177
REMARK   66  A    between atoms: _177  and  _178
REMARK   67  A    between atoms: _177  and  _180
REMARK   68  A    between atoms: _180  and  _181
REMARK   69  A    between atoms: _183  and  _185
REMARK   70  A    between atoms: _185  and  _186
REMARK   71  A    between atoms: _185  and  _188
REMARK   72  A    between atoms: _188  and  _189
REMARK   73  A    between atoms: _189  and  _190
REMARK   74  A    between atoms: _193  and  _195
REMARK   75  A    between atoms: _195  and  _196
REMARK   76  A    between atoms: _195  and  _198
REMARK   77  A    between atoms: _198  and  _199
REMARK   78  A    between atoms: _204  and  _205
REMARK   79  A    between atoms: _207  and  _209
REMARK   80  A    between atoms: _209  and  _210
REMARK   81  A    between atoms: _209  and  _212
REMARK   82  A    between atoms: _212  and  _213
REMARK   83  A    between atoms: _218  and  _220
REMARK   84  A    between atoms: _220  and  _221
REMARK   85  A    between atoms: _220  and  _223
REMARK   86  A    between atoms: _223  and  _224
REMARK   87  A    between atoms: _229  and  _231
REMARK   88  A    between atoms: _231  and  _232
REMARK   89  A    between atoms: _231  and  _234
REMARK   90  A    between atoms: _234  and  _235
REMARK   91  A    between atoms: _235  and  _236
REMARK   92  A    between atoms: _238  and  _240
REMARK   93  A    between atoms: _240  and  _241
REMARK   94  A    between atoms: _240  and  _243
REMARK   95  A    between atoms: _243  and  _244
REMARK   96  A    between atoms: _249  and  _250
REMARK   97  A    between atoms: _252  and  _254
REMARK   98  A    between atoms: _254  and  _255
REMARK   99  A    between atoms: _254  and  _257
REMARK  100  A    between atoms: _257  and  _258
REMARK  101  A    between atoms: _261  and  _263
REMARK  102  A    between atoms: _263  and  _264
REMARK  103  A    between atoms: _263  and  _266
REMARK  104  A    between atoms: _266  and  _267
REMARK  105  A    between atoms: _267  and  _484
REMARK  106  A    between atoms: _268  and  _270
REMARK  107  A    between atoms: _270  and  _271
REMARK  108  A    between atoms: _270  and  _273
REMARK  109  A    between atoms: _273  and  _274
REMARK  110  A    between atoms: _277  and  _279
REMARK  111  A    between atoms: _279  and  _280
REMARK  112  A    between atoms: _279  and  _282
REMARK  113  A    between atoms: _282  and  _283
REMARK  114  A    between atoms: _288  and  _289
REMARK  115  A    between atoms: _291  and  _293
REMARK  116  A    between atoms: _293  and  _294
REMARK  117  A    between atoms: _293  and  _296
REMARK  118  A    between atoms: _296  and  _297
REMARK  119  A    between atoms: _302  and  _303
REMARK  120  A    between atoms: _305  and  _307
REMARK  121  A    between atoms: _307  and  _308
REMARK  122  A    between atoms: _307  and  _310
REMARK  123  A    between atoms: _310  and  _311
REMARK  124  A    between atoms: _311  and  _312
REMARK  125  A    between atoms: _315  and  _317
REMARK  126  A    between atoms: _317  and  _318
REMARK  127  A    between atoms: _317  and  _320
REMARK  128  A    between atoms: _320  and  _321
REMARK  129  A    between atoms: _326  and  _327
REMARK  130  A    between atoms: _329  and  _331
REMARK  131  A    between atoms: _331  and  _332
REMARK  132  A    between atoms: _331  and  _334
REMARK  133  A    between atoms: _334  and  _335
REMARK  134  A    between atoms: _340  and  _342
REMARK  135  A    between atoms: _342  and  _343
REMARK  136  A    between atoms: _342  and  _345
REMARK  137  A    between atoms: _345  and  _346
REMARK  138  A    between atoms: _349  and  _351
REMARK  139  A    between atoms: _351  and  _352
REMARK  140  A    between atoms: _351  and  _354
REMARK  141  A    between atoms: _354  and  _355
REMARK  142  A    between atoms: _360  and  _362
REMARK  143  A    between atoms: _362  and  _363
REMARK  144  A    between atoms: _362  and  _365
REMARK  145  A    between atoms: _365  and  _366
REMARK  146  A    between atoms: _376  and  _378
REMARK  147  A    between atoms: _378  and  _379
REMARK  148  A    between atoms: _378  and  _381
REMARK  149  A    between atoms: _381  and  _382
REMARK  150  A    between atoms: _388  and  _390
REMARK  151  A    between atoms: _390  and  _391
REMARK  152  A    between atoms: _390  and  _393
REMARK  153  A    between atoms: _393  and  _394
REMARK  154  A    between atoms: _397  and  _399
REMARK  155  A    between atoms: _399  and  _400
REMARK  156  A    between atoms: _399  and  _402
REMARK  157  A    between atoms: _402  and  _403
REMARK  158  A    between atoms: _406  and  _408
REMARK  159  A    between atoms: _408  and  _409
REMARK  160  A    between atoms: _408  and  _411
REMARK  161  A    between atoms: _411  and  _412
REMARK  162  A    between atoms: _412  and  _413
REMARK  163  A    between atoms: _413  and  _414
REMARK  164  A    between atoms: _423  and  _425
REMARK  165  A    between atoms: _425  and  _426
REMARK  166  A    between atoms: _425  and  _428
REMARK  167  A    between atoms: _428  and  _429
REMARK  168  A    between atoms: _434  and  _436
REMARK  169  A    between atoms: _436  and  _437
REMARK  170  A    between atoms: _436  and  _439
REMARK  171  A    between atoms: _439  and  _440
REMARK  172  A    between atoms: _440  and  _441
REMARK  173  A    between atoms: _441  and  _442
REMARK  174  A    between atoms: _451  and  _453
REMARK  175  A    between atoms: _453  and  _454
REMARK  176  A    between atoms: _457  and  _459
REMARK  177  A    between atoms: _459  and  _460
REMARK  178  A    between atoms: _462  and  _464
REMARK  179  A    between atoms: _464  and  _465
REMARK  180  A    between atoms: _464  and  _467
REMARK  181  A    between atoms: _467  and  _468
REMARK  182  A    between atoms: _478  and  _480
REMARK  183  A    between atoms: _480  and  _481
REMARK  184  A    between atoms: _480  and  _483
REMARK  185  A    between atoms: _483  and  _484
REMARK  186  A    between atoms: _485  and  _487
REMARK  187  A    between atoms: _487  and  _488
REMARK  188  A    between atoms: _491  and  _493
REMARK  189  A    between atoms: _493  and  _494
REMARK  190  A    between atoms: _493  and  _496
REMARK  191  A    between atoms: _496  and  _497
REMARK  192  A    between atoms: _500  and  _502
REMARK  193  A    between atoms: _502  and  _503
REMARK  194  A    between atoms: _502  and  _505
REMARK  195  A    between atoms: _505  and  _506
REMARK  196  A    between atoms: _511  and  _512
REMARK  197  A    between atoms: _514  and  _516
REMARK  198  A    between atoms: _516  and  _517
REMARK  199  A    between atoms: _516  and  _519
REMARK  200  A    between atoms: _519  and  _520
REMARK  201  A    between atoms: _522  and  _524
REMARK  202  A    between atoms: _524  and  _525
REMARK  203  A    between atoms: _524  and  _527
REMARK  204  A    between atoms: _527  and  _528
REMARK  205  A    between atoms: _534  and  _536
REMARK  206  A    between atoms: _536  and  _537
REMARK  207  A    between atoms: _536  and  _539
REMARK  208  A    between atoms: _539  and  _540
REMARK  209  A    between atoms: _543  and  _545
REMARK  210  A    between atoms: _545  and  _546
REMARK  211  A    between atoms: _545  and  _548
REMARK  212  A    between atoms: _548  and  _549
REMARK  213  A    between atoms: _551  and  _553
REMARK  214  A    between atoms: _553  and  _554
REMARK  215  A    between atoms: _553  and  _556
REMARK  216  A    between atoms: _556  and  _557
REMARK  217  A    between atoms: _559  and  _561
REMARK  218  A    between atoms: _561  and  _562
REMARK  219  A    between atoms: _561  and  _564
REMARK  220  A    between atoms: _564  and  _565
REMARK  221  A    between atoms: _570  and  _572
REMARK  222  A    between atoms: _572  and  _573
REMARK  223  A    between atoms: _572  and  _575
REMARK  224  A    between atoms: _575  and  _576
REMARK  225  A    between atoms: _581  and  _583
REMARK  226  A    between atoms: _583  and  _584
REMARK  227  A    between atoms: _583  and  _586
REMARK  228  A    between atoms: _586  and  _587
REMARK  229  A    between atoms: _590  and  _592
REMARK  230  A    between atoms: _592  and  _593
REMARK  231  A    between atoms: _596  and  _598
REMARK  232  A    between atoms: _598  and  _599
REMARK  233  A    between atoms: _598  and  _601
REMARK  234  A    between atoms: _601  and  _602
REMARK  235  A    between atoms: _607  and  _608
REMARK  236  A    between atoms: _610  and  _612
REMARK  237  A    between atoms: _612  and  _613
REMARK  238  A    between atoms: _612  and  _615
REMARK  239  A    between atoms: _615  and  _616
REMARK  240  A    between atoms: _621  and  _622
REMARK  241  A    between atoms: _624  and  _626
REMARK  242  A    between atoms: _626  and  _627
REMARK  243  A    between atoms: _626  and  _629
REMARK  244  A    between atoms: _632  and  _634
REMARK  245  A    between atoms: _634  and  _635
REMARK  246  A    between atoms: _634  and  _637
REMARK  247  A    between atoms: _637  and  _638
REMARK  248  A    between atoms: _643  and  _645
REMARK  249  A    between atoms: _645  and  _646
REMARK  250  A    between atoms: _649  and  _651
REMARK  251  A    between atoms: _651  and  _652
REMARK  252  A    between atoms: _651  and  _654
REMARK  253  A    between atoms: _654  and  _655
REMARK  254  A    between atoms: _655  and  _656
REMARK  255  A    between atoms: _656  and  _657
REMARK  256  A    between atoms: _666  and  _668
REMARK  257  A    between atoms: _668  and  _669
REMARK  258  A    between atoms: _668  and  _671
REMARK  259  A    between atoms: _671  and  _672
REMARK  260  A    between atoms: _675  and  _677
REMARK  261  A    between atoms: _677  and  _678
REMARK  262  A    between atoms: _677  and  _680
REMARK  263  A    between atoms: _680  and  _681
REMARK  264  A    between atoms: _684  and  _686
REMARK  265  A    between atoms: _686  and  _687
REMARK  266  A    between atoms: _686  and  _689
REMARK  267  A    between atoms: _689  and  _690
REMARK                            x       y       z     vdW  Elec       q    Type
REMARK                         _______ _______ _______ _____ _____    ______ ____
ROOT
ATOM      1  O   HOH     1       8.118  11.404   5.294  0.00  0.00    +0.000 OA
ENDROOT
TORSDOF 0
REMARK  Name = ../refined-set-2016/2olb/2olb_pocket.pdb
REMARK  267 active torsions:
REMARK  status: ('A' for Active; 'I' for Inactive)
REMARK    1  A    between atoms: _1  and  _3
REMARK    2  A    between atoms: _3  and  _4
REMARK    3  A    between atoms: _3  and  _6
REMARK    4  A    between atoms: _6  and  _7
REMARK    5  A    between atoms: _12  and  _14
REMARK    6  A    between atoms: _14  and  _15
REMARK    7  A    between atoms: _17  and  _19
REMARK    8  A    between atoms: _19  and  _20
REMARK    9  A    between atoms: _19  and  _22
REMARK   10  A    between atoms: _22  and  _23
REMARK   11  A    between atoms: _23  and  _24
REMARK   12  A    between atoms: _29  and  _31
REMARK   13  A    between atoms: _31  and  _32
REMARK   14  A    between atoms: _31  and  _34
REMARK   15  A    between atoms: _34  and  _35
REMARK   16  A    between atoms: _38  and  _40
REMARK   17  A    between atoms: _40  and  _41
REMARK   18  A    between atoms: _40  and  _43
REMARK   19  A    between atoms: _43  and  _44
REMARK   20  A    between atoms: _44  and  _45
REMARK   21  A    between atoms: _48  and  _50
REMARK   22  A    between atoms: _50  and  _51
REMARK   23  A    between atoms: _53  and  _55
REMARK   24  A    between atoms: _55  and  _56
REMARK   25  A    between atoms: _55  and  _58
REMARK   26  A    between atoms: _62  and  _63
REMARK   27  A    between atoms: _68  and  _70
REMARK   28  A    between atoms: _70  and  _71
REMARK   29  A    between atoms: _70  and  _73
REMARK   30  A    between atoms: _73  and  _74
REMARK   31  A    between atoms: _74  and  _75
REMARK   32  A    between atoms: _78  and  _80
REMARK   33  A    between atoms: _80  and  _81
REMARK   34  A    between atoms: _80  and  _83
REMARK   35  A    between atoms: _83  and  _84
REMARK   36  A    between atoms: _86  and  _88
REMARK   37  A    between atoms: _88  and  _89
REMARK   38  A    between atoms: _88  and  _91
REMARK   39  A    between atoms: _91  and  _92
REMARK   40  A    between atoms: _97  and  _99
REMARK   41  A    between atoms: _99  and  _100
REMARK   42  A    between atoms: _99  and  _102
REMARK   43  A    between atoms: _102  and  _103
REMARK   44  A    between atoms: _103  and  _104
REMARK   45  A    between atoms: _104  and  _105
REMARK   46  A    between atoms: _115  and  _116
REMARK   47  A    between atoms: _121  and  _123
REMARK   48  A    between atoms: _123  and  _124
REMARK   49  A    between atoms: _123  and  _126
REMARK   50  A    between atoms: _126  and  _127
REMARK   51  A    between atoms: _132  and  _133
REMARK   52  A    between atoms: _135  and  _137
REMARK   53  A    between atoms: _137  and  _138
REMARK   54  A    between atoms: _137  and  _140
REMARK   55  A    between atoms: _140  and  _141
REMARK   56  A    between atoms: _146  and  _147
REMARK   57  A    between atoms: _149  and  _151
REMARK   58  A    between atoms: _151  and  _152
REMARK   59  A    between atoms: _151  and  _154
REMARK   60  A    between atoms: _157  and  _159
REMARK   61  A    between atoms: _159  and  _160
REMARK   62  A    between atoms: _159  and  _162
REMARK   63  A    between atoms: _162  and  _163
REMARK   64  A    between atoms: _169  and  _170
REMARK   65  A    between atoms: _175  and  _177
REMARK   66  A    between atoms: _177  and  _178
REMARK   67  A    between atoms: _177  and  _180
REMARK   68  A    between atoms: _180  and  _181
REMARK   69  A    between atoms: _183  and  _185
REMARK   70  A    between atoms: _185  and  _186
REMARK   71  A    between atoms: _185  and  _188
REMARK   72  A    between atoms: _188  and  _189
REMARK   73  A    between atoms: _189  and  _190
REMARK   74  A    between atoms: _193  and  _195
REMARK   75  A    between atoms: _195  and  _196
REMARK   76  A    between atoms: _195  and  _198
REMARK   77  A    between atoms: _198  and  _199
REMARK   78  A    between atoms: _204  and  _205
REMARK   79  A    between atoms: _207  and  _209
REMARK   80  A    between atoms: _209  and  _210
REMARK   81  A    between atoms: _209  and  _212
REMARK   82  A    between atoms: _212  and  _213
REMARK   83  A    between atoms: _218  and  _220
REMARK   84  A    between atoms: _220  and  _221
REMARK   85  A    between atoms: _220  and  _223
REMARK   86  A    between atoms: _223  and  _224
REMARK   87  A    between atoms: _229  and  _231
REMARK   88  A    between atoms: _231  and  _232
REMARK   89  A    between atoms: _231  and  _234
REMARK   90  A    between atoms: _234  and  _235
REMARK   91  A    between atoms: _235  and  _236
REMARK   92  A    between atoms: _238  and  _240
REMARK   93  A    between atoms: _240  and  _241
REMARK   94  A    between atoms: _240  and  _243
REMARK   95  A    between atoms: _243  and  _244
REMARK   96  A    between atoms: _249  and  _250
REMARK   97  A    between atoms: _252  and  _254
REMARK   98  A    between atoms: _254  and  _255
REMARK   99  A    between atoms: _254  and  _257
REMARK  100  A    between atoms: _257  and  _258
REMARK  101  A    between atoms: _261  and  _263
REMARK  102  A    between atoms: _263  and  _264
REMARK  103  A    between atoms: _263  and  _266
REMARK  104  A    between atoms: _266  and  _267
REMARK  105  A    between atoms: _267  and  _484
REMARK  106  A    between atoms: _268  and  _270
REMARK  107  A    between atoms: _270  and  _271
REMARK  108  A    between atoms: _270  and  _273
REMARK  109  A    between atoms: _273  and  _274
REMARK  110  A    between atoms: _277  and  _279
REMARK  111  A    between atoms: _279  and  _280
REMARK  112  A    between atoms: _279  and  _282
REMARK  113  A    between atoms: _282  and  _283
REMARK  114  A    between atoms: _288  and  _289
REMARK  115  A    between atoms: _291  and  _293
REMARK  116  A    between atoms: _293  and  _294
REMARK  117  A    between atoms: _293  and  _296
REMARK  118  A    between atoms: _296  and  _297
REMARK  119  A    between atoms: _302  and  _303
REMARK  120  A    between atoms: _305  and  _307
REMARK  121  A    between atoms: _307  and  _308
REMARK  122  A    between atoms: _307  and  _310
REMARK  123  A    between atoms: _310  and  _311
REMARK  124  A    between atoms: _311  and  _312
REMARK  125  A    between atoms: _315  and  _317
REMARK  126  A    between atoms: _317  and  _318
REMARK  127  A    between atoms: _317  and  _320
REMARK  128  A    between atoms: _320  and  _321
REMARK  129  A    between atoms: _326  and  _327
REMARK  130  A    between atoms: _329  and  _331
REMARK  131  A    between atoms: _331  and  _332
REMARK  132  A    between atoms: _331  and  _334
REMARK  133  A    between atoms: _334  and  _335
REMARK  134  A    between atoms: _340  and  _342
REMARK  135  A    between atoms: _342  and  _343
REMARK  136  A    between atoms: _342  and  _345
REMARK  137  A    between atoms: _345  and  _346
REMARK  138  A    between atoms: _349  and  _351
REMARK  139  A    between atoms: _351  and  _352
REMARK  140  A    between atoms: _351  and  _354
REMARK  141  A    between atoms: _354  and  _355
REMARK  142  A    between atoms: _360  and  _362
REMARK  143  A    between atoms: _362  and  _363
REMARK  144  A    between atoms: _362  and  _365
REMARK  145  A    between atoms: _365  and  _366
REMARK  146  A    between atoms: _376  and  _378
REMARK  147  A    between atoms: _378  and  _379
REMARK  148  A    between atoms: _378  and  _381
REMARK  149  A    between atoms: _381  and  _382
REMARK  150  A    between atoms: _388  and  _390
REMARK  151  A    between atoms: _390  and  _391
REMARK  152  A    between atoms: _390  and  _393
REMARK  153  A    between atoms: _393  and  _394
REMARK  154  A    between atoms: _397  and  _399
REMARK  155  A    between atoms: _399  and  _400
REMARK  156  A    between atoms: _399  and  _402
REMARK  157  A    between atoms: _402  and  _403
REMARK  158  A    between atoms: _406  and  _408
REMARK  159  A    between atoms: _408  and  _409
REMARK  160  A    between atoms: _408  and  _411
REMARK  161  A    between atoms: _411  and  _412
REMARK  162  A    between atoms: _412  and  _413
REMARK  163  A    between atoms: _413  and  _414
REMARK  164  A    between atoms: _423  and  _425
REMARK  165  A    between atoms: _425  and  _426
REMARK  166  A    between atoms: _425  and  _428
REMARK  167  A    between atoms: _428  and  _429
REMARK  168  A    between atoms: _434  and  _436
REMARK  169  A    between atoms: _436  and  _437
REMARK  170  A    between atoms: _436  and  _439
REMARK  171  A    between atoms: _439  and  _440
REMARK  172  A    between atoms: _440  and  _441
REMARK  173  A    between atoms: _441  and  _442
REMARK  174  A    between atoms: _451  and  _453
REMARK  175  A    between atoms: _453  and  _454
REMARK  176  A    between atoms: _457  and  _459
REMARK  177  A    between atoms: _459  and  _460
REMARK  178  A    between atoms: _462  and  _464
REMARK  179  A    between atoms: _464  and  _465
REMARK  180  A    between atoms: _464  and  _467
REMARK  181  A    between atoms: _467  and  _468
REMARK  182  A    between atoms: _478  and  _480
REMARK  183  A    between atoms: _480  and  _481
REMARK  184  A    between atoms: _480  and  _483
REMARK  185  A    between atoms: _483  and  _484
REMARK  186  A    between atoms: _485  and  _487
REMARK  187  A    between atoms: _487  and  _488
REMARK  188  A    between atoms: _491  and  _493
REMARK  189  A    between atoms: _493  and  _494
REMARK  190  A    between atoms: _493  and  _496
REMARK  191  A    between atoms: _496  and  _497
REMARK  192  A    between atoms: _500  and  _502
REMARK  193  A    between atoms: _502  and  _503
REMARK  194  A    between atoms: _502  and  _505
REMARK  195  A    between atoms: _505  and  _506
REMARK  196  A    between atoms: _511  and  _512
REMARK  197  A    between atoms: _514  and  _516
REMARK  198  A    between atoms: _516  and  _517
REMARK  199  A    between atoms: _516  and  _519
REMARK  200  A    between atoms: _519  and  _520
REMARK  201  A    between atoms: _522  and  _524
REMARK  202  A    between atoms: _524  and  _525
REMARK  203  A    between atoms: _524  and  _527
REMARK  204  A    between atoms: _527  and  _528
REMARK  205  A    between atoms: _534  and  _536
REMARK  206  A    between atoms: _536  and  _537
REMARK  207  A    between atoms: _536  and  _539
REMARK  208  A    between atoms: _539  and  _540
REMARK  209  A    between atoms: _543  and  _545
REMARK  210  A    between atoms: _545  and  _546
REMARK  211  A    between atoms: _545  and  _548
REMARK  212  A    between atoms: _548  and  _549
REMARK  213  A    between atoms: _551  and  _553
REMARK  214  A    between atoms: _553  and  _554
REMARK  215  A    between atoms: _553  and  _556
REMARK  216  A    between atoms: _556  and  _557
REMARK  217  A    between atoms: _559  and  _561
REMARK  218  A    between atoms: _561  and  _562
REMARK  219  A    between atoms: _561  and  _564
REMARK  220  A    between atoms: _564  and  _565
REMARK  221  A    between atoms: _570  and  _572
REMARK  222  A    between atoms: _572  and  _573
REMARK  223  A    between atoms: _572  and  _575
REMARK  224  A    between atoms: _575  and  _576
REMARK  225  A    between atoms: _581  and  _583
REMARK  226  A    between atoms: _583  and  _584
REMARK  227  A    between atoms: _583  and  _586
REMARK  228  A    between atoms: _586  and  _587
REMARK  229  A    between atoms: _590  and  _592
REMARK  230  A    between atoms: _592  and  _593
REMARK  231  A    between atoms: _596  and  _598
REMARK  232  A    between atoms: _598  and  _599
REMARK  233  A    between atoms: _598  and  _601
REMARK  234  A    between atoms: _601  and  _602
REMARK  235  A    between atoms: _607  and  _608
REMARK  236  A    between atoms: _610  and  _612
REMARK  237  A    between atoms: _612  and  _613
REMARK  238  A    between atoms: _612  and  _615
REMARK  239  A    between atoms: _615  and  _616
REMARK  240  A    between atoms: _621  and  _622
REMARK  241  A    between atoms: _624  and  _626
REMARK  242  A    between atoms: _626  and  _627
REMARK  243  A    between atoms: _626  and  _629
REMARK  244  A    between atoms: _632  and  _634
REMARK  245  A    between atoms: _634  and  _635
REMARK  246  A    between atoms: _634  and  _637
REMARK  247  A    between atoms: _637  and  _638
REMARK  248  A    between atoms: _643  and  _645
REMARK  249  A    between atoms: _645  and  _646
REMARK  250  A    between atoms: _649  and  _651
REMARK  251  A    between atoms: _651  and  _652
REMARK  252  A    between atoms: _651  and  _654
REMARK  253  A    between atoms: _654  and  _655
REMARK  254  A    between atoms: _655  and  _656
REMARK  255  A    between atoms: _656  and  _657
REMARK  256  A    between atoms: _666  and  _668
REMARK  257  A    between atoms: _668  and  _669
REMARK  258  A    between atoms: _668  and  _671
REMARK  259  A    between atoms: _671  and  _672
REMARK  260  A    between atoms: _675  and  _677
REMARK  261  A    between atoms: _677  and  _678
REMARK  262  A    between atoms: _677  and  _680
REMARK  263  A    between atoms: _680  and  _681
REMARK  264  A    between atoms: _684  and  _686
REMARK  265  A    between atoms: _686  and  _687
REMARK  266  A    between atoms: _686  and  _689
REMARK  267  A    between atoms: _689  and  _690
REMARK                            x       y       z     vdW  Elec       q    Type
REMARK                         _______ _______ _______ _____ _____    ______ ____
ROOT
ATOM      1  O   HOH     1       8.644  13.443   7.244  0.00  0.00    +0.000 OA
ENDROOT
TORSDOF 0
REMARK  Name = ../refined-set-2016/2olb/2olb_pocket.pdb
REMARK  267 active torsions:
REMARK  status: ('A' for Active; 'I' for Inactive)
REMARK    1  A    between atoms: _1  and  _3
REMARK    2  A    between atoms: _3  and  _4
REMARK    3  A    between atoms: _3  and  _6
REMARK    4  A    between atoms: _6  and  _7
REMARK    5  A    between atoms: _12  and  _14
REMARK    6  A    between atoms: _14  and  _15
REMARK    7  A    between atoms: _17  and  _19
REMARK    8  A    between atoms: _19  and  _20
REMARK    9  A    between atoms: _19  and  _22
REMARK   10  A    between atoms: _22  and  _23
REMARK   11  A    between atoms: _23  and  _24
REMARK   12  A    between atoms: _29  and  _31
REMARK   13  A    between atoms: _31  and  _32
REMARK   14  A    between atoms: _31  and  _34
REMARK   15  A    between atoms: _34  and  _35
REMARK   16  A    between atoms: _38  and  _40
REMARK   17  A    between atoms: _40  and  _41
REMARK   18  A    between atoms: _40  and  _43
REMARK   19  A    between atoms: _43  and  _44
REMARK   20  A    between atoms: _44  and  _45
REMARK   21  A    between atoms: _48  and  _50
REMARK   22  A    between atoms: _50  and  _51
REMARK   23  A    between atoms: _53  and  _55
REMARK   24  A    between atoms: _55  and  _56
REMARK   25  A    between atoms: _55  and  _58
REMARK   26  A    between atoms: _62  and  _63
REMARK   27  A    between atoms: _68  and  _70
REMARK   28  A    between atoms: _70  and  _71
REMARK   29  A    between atoms: _70  and  _73
REMARK   30  A    between atoms: _73  and  _74
REMARK   31  A    between atoms: _74  and  _75
REMARK   32  A    between atoms: _78  and  _80
REMARK   33  A    between atoms: _80  and  _81
REMARK   34  A    between atoms: _80  and  _83
REMARK   35  A    between atoms: _83  and  _84
REMARK   36  A    between atoms: _86  and  _88
REMARK   37  A    between atoms: _88  and  _89
REMARK   38  A    between atoms: _88  and  _91
REMARK   39  A    between atoms: _91  and  _92
REMARK   40  A    between atoms: _97  and  _99
REMARK   41  A    between atoms: _99  and  _100
REMARK   42  A    between atoms: _99  and  _102
REMARK   43  A    between atoms: _102  and  _103
REMARK   44  A    between atoms: _103  and  _104
REMARK   45  A    between atoms: _104  and  _105
REMARK   46  A    between atoms: _115  and  _116
REMARK   47  A    between atoms: _121  and  _123
REMARK   48  A    between atoms: _123  and  _124
REMARK   49  A    between atoms: _123  and  _126
REMARK   50  A    between atoms: _126  and  _127
REMARK   51  A    between atoms: _132  and  _133
REMARK   52  A    between atoms: _135  and  _137
REMARK   53  A    between atoms: _137  and  _138
REMARK   54  A    between atoms: _137  and  _140
REMARK   55  A    between atoms: _140  and  _141
REMARK   56  A    between atoms: _146  and  _147
REMARK   57  A    between atoms: _149  and  _151
REMARK   58  A    between atoms: _151  and  _152
REMARK   59  A    between atoms: _151  and  _154
REMARK   60  A    between atoms: _157  and  _159
REMARK   61  A    between atoms: _159  and  _160
REMARK   62  A    between atoms: _159  and  _162
REMARK   63  A    between atoms: _162  and  _163
REMARK   64  A    between atoms: _169  and  _170
REMARK   65  A    between atoms: _175  and  _177
REMARK   66  A    between atoms: _177  and  _178
REMARK   67  A    between atoms: _177  and  _180
REMARK   68  A    between atoms: _180  and  _181
REMARK   69  A    between atoms: _183  and  _185
REMARK   70  A    between atoms: _185  and  _186
REMARK   71  A    between atoms: _185  and  _188
REMARK   72  A    between atoms: _188  and  _189
REMARK   73  A    between atoms: _189  and  _190
REMARK   74  A    between atoms: _193  and  _195
REMARK   75  A    between atoms: _195  and  _196
REMARK   76  A    between atoms: _195  and  _198
REMARK   77  A    between atoms: _198  and  _199
REMARK   78  A    between atoms: _204  and  _205
REMARK   79  A    between atoms: _207  and  _209
REMARK   80  A    between atoms: _209  and  _210
REMARK   81  A    between atoms: _209  and  _212
REMARK   82  A    between atoms: _212  and  _213
REMARK   83  A    between atoms: _218  and  _220
REMARK   84  A    between atoms: _220  and  _221
REMARK   85  A    between atoms: _220  and  _223
REMARK   86  A    between atoms: _223  and  _224
REMARK   87  A    between atoms: _229  and  _231
REMARK   88  A    between atoms: _231  and  _232
REMARK   89  A    between atoms: _231  and  _234
REMARK   90  A    between atoms: _234  and  _235
REMARK   91  A    between atoms: _235  and  _236
REMARK   92  A    between atoms: _238  and  _240
REMARK   93  A    between atoms: _240  and  _241
REMARK   94  A    between atoms: _240  and  _243
REMARK   95  A    between atoms: _243  and  _244
REMARK   96  A    between atoms: _249  and  _250
REMARK   97  A    between atoms: _252  and  _254
REMARK   98  A    between atoms: _254  and  _255
REMARK   99  A    between atoms: _254  and  _257
REMARK  100  A    between atoms: _257  and  _258
REMARK  101  A    between atoms: _261  and  _263
REMARK  102  A    between atoms: _263  and  _264
REMARK  103  A    between atoms: _263  and  _266
REMARK  104  A    between atoms: _266  and  _267
REMARK  105  A    between atoms: _267  and  _484
REMARK  106  A    between atoms: _268  and  _270
REMARK  107  A    between atoms: _270  and  _271
REMARK  108  A    between atoms: _270  and  _273
REMARK  109  A    between atoms: _273  and  _274
REMARK  110  A    between atoms: _277  and  _279
REMARK  111  A    between atoms: _279  and  _280
REMARK  112  A    between atoms: _279  and  _282
REMARK  113  A    between atoms: _282  and  _283
REMARK  114  A    between atoms: _288  and  _289
REMARK  115  A    between atoms: _291  and  _293
REMARK  116  A    between atoms: _293  and  _294
REMARK  117  A    between atoms: _293  and  _296
REMARK  118  A    between atoms: _296  and  _297
REMARK  119  A    between atoms: _302  and  _303
REMARK  120  A    between atoms: _305  and  _307
REMARK  121  A    between atoms: _307  and  _308
REMARK  122  A    between atoms: _307  and  _310
REMARK  123  A    between atoms: _310  and  _311
REMARK  124  A    between atoms: _311  and  _312
REMARK  125  A    between atoms: _315  and  _317
REMARK  126  A    between atoms: _317  and  _318
REMARK  127  A    between atoms: _317  and  _320
REMARK  128  A    between atoms: _320  and  _321
REMARK  129  A    between atoms: _326  and  _327
REMARK  130  A    between atoms: _329  and  _331
REMARK  131  A    between atoms: _331  and  _332
REMARK  132  A    between atoms: _331  and  _334
REMARK  133  A    between atoms: _334  and  _335
REMARK  134  A    between atoms: _340  and  _342
REMARK  135  A    between atoms: _342  and  _343
REMARK  136  A    between atoms: _342  and  _345
REMARK  137  A    between atoms: _345  and  _346
REMARK  138  A    between atoms: _349  and  _351
REMARK  139  A    between atoms: _351  and  _352
REMARK  140  A    between atoms: _351  and  _354
REMARK  141  A    between atoms: _354  and  _355
REMARK  142  A    between atoms: _360  and  _362
REMARK  143  A    between atoms: _362  and  _363
REMARK  144  A    between atoms: _362  and  _365
REMARK  145  A    between atoms: _365  and  _366
REMARK  146  A    between atoms: _376  and  _378
REMARK  147  A    between atoms: _378  and  _379
REMARK  148  A    between atoms: _378  and  _381
REMARK  149  A    between atoms: _381  and  _382
REMARK  150  A    between atoms: _388  and  _390
REMARK  151  A    between atoms: _390  and  _391
REMARK  152  A    between atoms: _390  and  _393
REMARK  153  A    between atoms: _393  and  _394
REMARK  154  A    between atoms: _397  and  _399
REMARK  155  A    between atoms: _399  and  _400
REMARK  156  A    between atoms: _399  and  _402
REMARK  157  A    between atoms: _402  and  _403
REMARK  158  A    between atoms: _406  and  _408
REMARK  159  A    between atoms: _408  and  _409
REMARK  160  A    between atoms: _408  and  _411
REMARK  161  A    between atoms: _411  and  _412
REMARK  162  A    between atoms: _412  and  _413
REMARK  163  A    between atoms: _413  and  _414
REMARK  164  A    between atoms: _423  and  _425
REMARK  165  A    between atoms: _425  and  _426
REMARK  166  A    between atoms: _425  and  _428
REMARK  167  A    between atoms: _428  and  _429
REMARK  168  A    between atoms: _434  and  _436
REMARK  169  A    between atoms: _436  and  _437
REMARK  170  A    between atoms: _436  and  _439
REMARK  171  A    between atoms: _439  and  _440
REMARK  172  A    between atoms: _440  and  _441
REMARK  173  A    between atoms: _441  and  _442
REMARK  174  A    between atoms: _451  and  _453
REMARK  175  A    between atoms: _453  and  _454
REMARK  176  A    between atoms: _457  and  _459
REMARK  177  A    between atoms: _459  and  _460
REMARK  178  A    between atoms: _462  and  _464
REMARK  179  A    between atoms: _464  and  _465
REMARK  180  A    between atoms: _464  and  _467
REMARK  181  A    between atoms: _467  and  _468
REMARK  182  A    between atoms: _478  and  _480
REMARK  183  A    between atoms: _480  and  _481
REMARK  184  A    between atoms: _480  and  _483
REMARK  185  A    between atoms: _483  and  _484
REMARK  186  A    between atoms: _485  and  _487
REMARK  187  A    between atoms: _487  and  _488
REMARK  188  A    between atoms: _491  and  _493
REMARK  189  A    between atoms: _493  and  _494
REMARK  190  A    between atoms: _493  and  _496
REMARK  191  A    between atoms: _496  and  _497
REMARK  192  A    between atoms: _500  and  _502
REMARK  193  A    between atoms: _502  and  _503
REMARK  194  A    between atoms: _502  and  _505
REMARK  195  A    between atoms: _505  and  _506
REMARK  196  A    between atoms: _511  and  _512
REMARK  197  A    between atoms: _514  and  _516
REMARK  198  A    between atoms: _516  and  _517
REMARK  199  A    between atoms: _516  and  _519
REMARK  200  A    between atoms: _519  and  _520
REMARK  201  A    between atoms: _522  and  _524
REMARK  202  A    between atoms: _524  and  _525
REMARK  203  A    between atoms: _524  and  _527
REMARK  204  A    between atoms: _527  and  _528
REMARK  205  A    between atoms: _534  and  _536
REMARK  206  A    between atoms: _536  and  _537
REMARK  207  A    between atoms: _536  and  _539
REMARK  208  A    between atoms: _539  and  _540
REMARK  209  A    between atoms: _543  and  _545
REMARK  210  A    between atoms: _545  and  _546
REMARK  211  A    between atoms: _545  and  _548
REMARK  212  A    between atoms: _548  and  _549
REMARK  213  A    between atoms: _551  and  _553
REMARK  214  A    between atoms: _553  and  _554
REMARK  215  A    between atoms: _553  and  _556
REMARK  216  A    between atoms: _556  and  _557
REMARK  217  A    between atoms: _559  and  _561
REMARK  218  A    between atoms: _561  and  _562
REMARK  219  A    between atoms: _561  and  _564
REMARK  220  A    between atoms: _564  and  _565
REMARK  221  A    between atoms: _570  and  _572
REMARK  222  A    between atoms: _572  and  _573
REMARK  223  A    between atoms: _572  and  _575
REMARK  224  A    between atoms: _575  and  _576
REMARK  225  A    between atoms: _581  and  _583
REMARK  226  A    between atoms: _583  and  _584
REMARK  227  A    between atoms: _583  and  _586
REMARK  228  A    between atoms: _586  and  _587
REMARK  229  A    between atoms: _590  and  _592
REMARK  230  A    between atoms: _592  and  _593
REMARK  231  A    between atoms: _596  and  _598
REMARK  232  A    between atoms: _598  and  _599
REMARK  233  A    between atoms: _598  and  _601
REMARK  234  A    between atoms: _601  and  _602
REMARK  235  A    between atoms: _607  and  _608
REMARK  236  A    between atoms: _610  and  _612
REMARK  237  A    between atoms: _612  and  _613
REMARK  238  A    between atoms: _612  and  _615
REMARK  239  A    between atoms: _615  and  _616
REMARK  240  A    between atoms: _621  and  _622
REMARK  241  A    between atoms: _624  and  _626
REMARK  242  A    between atoms: _626  and  _627
REMARK  243  A    between atoms: _626  and  _629
REMARK  244  A    between atoms: _632  and  _634
REMARK  245  A    between atoms: _634  and  _635
REMARK  246  A    between atoms: _634  and  _637
REMARK  247  A    between atoms: _637  and  _638
REMARK  248  A    between atoms: _643  and  _645
REMARK  249  A    between atoms: _645  and  _646
REMARK  250  A    between atoms: _649  and  _651
REMARK  251  A    between atoms: _651  and  _652
REMARK  252  A    between atoms: _651  and  _654
REMARK  253  A    between atoms: _654  and  _655
REMARK  254  A    between atoms: _655  and  _656
REMARK  255  A    between atoms: _656  and  _657
REMARK  256  A    between atoms: _666  and  _668
REMARK  257  A    between atoms: _668  and  _669
REMARK  258  A    between atoms: _668  and  _671
REMARK  259  A    between atoms: _671  and  _672
REMARK  260  A    between atoms: _675  and  _677
REMARK  261  A    between atoms: _677  and  _678
REMARK  262  A    between atoms: _677  and  _680
REMARK  263  A    between atoms: _680  and  _681
REMARK  264  A    between atoms: _684  and  _686
REMARK  265  A    between atoms: _686  and  _687
REMARK  266  A    between atoms: _686  and  _689
REMARK  267  A    between atoms: _689  and  _690
REMARK                            x       y       z     vdW  Elec       q    Type
REMARK                         _______ _______ _______ _____ _____    ______ ____
ROOT
ATOM      1  O   HOH     1       7.729  15.680   6.772  0.00  0.00    +0.000 OA
ENDROOT
TORSDOF 0
REMARK  Name = ../refined-set-2016/2olb/2olb_pocket.pdb
REMARK  267 active torsions:
REMARK  status: ('A' for Active; 'I' for Inactive)
REMARK    1  A    between atoms: _1  and  _3
REMARK    2  A    between atoms: _3  and  _4
REMARK    3  A    between atoms: _3  and  _6
REMARK    4  A    between atoms: _6  and  _7
REMARK    5  A    between atoms: _12  and  _14
REMARK    6  A    between atoms: _14  and  _15
REMARK    7  A    between atoms: _17  and  _19
REMARK    8  A    between atoms: _19  and  _20
REMARK    9  A    between atoms: _19  and  _22
REMARK   10  A    between atoms: _22  and  _23
REMARK   11  A    between atoms: _23  and  _24
REMARK   12  A    between atoms: _29  and  _31
REMARK   13  A    between atoms: _31  and  _32
REMARK   14  A    between atoms: _31  and  _34
REMARK   15  A    between atoms: _34  and  _35
REMARK   16  A    between atoms: _38  and  _40
REMARK   17  A    between atoms: _40  and  _41
REMARK   18  A    between atoms: _40  and  _43
REMARK   19  A    between atoms: _43  and  _44
REMARK   20  A    between atoms: _44  and  _45
REMARK   21  A    between atoms: _48  and  _50
REMARK   22  A    between atoms: _50  and  _51
REMARK   23  A    between atoms: _53  and  _55
REMARK   24  A    between atoms: _55  and  _56
REMARK   25  A    between atoms: _55  and  _58
REMARK   26  A    between atoms: _62  and  _63
REMARK   27  A    between atoms: _68  and  _70
REMARK   28  A    between atoms: _70  and  _71
REMARK   29  A    between atoms: _70  and  _73
REMARK   30  A    between atoms: _73  and  _74
REMARK   31  A    between atoms: _74  and  _75
REMARK   32  A    between atoms: _78  and  _80
REMARK   33  A    between atoms: _80  and  _81
REMARK   34  A    between atoms: _80  and  _83
REMARK   35  A    between atoms: _83  and  _84
REMARK   36  A    between atoms: _86  and  _88
REMARK   37  A    between atoms: _88  and  _89
REMARK   38  A    between atoms: _88  and  _91
REMARK   39  A    between atoms: _91  and  _92
REMARK   40  A    between atoms: _97  and  _99
REMARK   41  A    between atoms: _99  and  _100
REMARK   42  A    between atoms: _99  and  _102
REMARK   43  A    between atoms: _102  and  _103
REMARK   44  A    between atoms: _103  and  _104
REMARK   45  A    between atoms: _104  and  _105
REMARK   46  A    between atoms: _115  and  _116
REMARK   47  A    between atoms: _121  and  _123
REMARK   48  A    between atoms: _123  and  _124
REMARK   49  A    between atoms: _123  and  _126
REMARK   50  A    between atoms: _126  and  _127
REMARK   51  A    between atoms: _132  and  _133
REMARK   52  A    between atoms: _135  and  _137
REMARK   53  A    between atoms: _137  and  _138
REMARK   54  A    between atoms: _137  and  _140
REMARK   55  A    between atoms: _140  and  _141
REMARK   56  A    between atoms: _146  and  _147
REMARK   57  A    between atoms: _149  and  _151
REMARK   58  A    between atoms: _151  and  _152
REMARK   59  A    between atoms: _151  and  _154
REMARK   60  A    between atoms: _157  and  _159
REMARK   61  A    between atoms: _159  and  _160
REMARK   62  A    between atoms: _159  and  _162
REMARK   63  A    between atoms: _162  and  _163
REMARK   64  A    between atoms: _169  and  _170
REMARK   65  A    between atoms: _175  and  _177
REMARK   66  A    between atoms: _177  and  _178
REMARK   67  A    between atoms: _177  and  _180
REMARK   68  A    between atoms: _180  and  _181
REMARK   69  A    between atoms: _183  and  _185
REMARK   70  A    between atoms: _185  and  _186
REMARK   71  A    between atoms: _185  and  _188
REMARK   72  A    between atoms: _188  and  _189
REMARK   73  A    between atoms: _189  and  _190
REMARK   74  A    between atoms: _193  and  _195
REMARK   75  A    between atoms: _195  and  _196
REMARK   76  A    between atoms: _195  and  _198
REMARK   77  A    between atoms: _198  and  _199
REMARK   78  A    between atoms: _204  and  _205
REMARK   79  A    between atoms: _207  and  _209
REMARK   80  A    between atoms: _209  and  _210
REMARK   81  A    between atoms: _209  and  _212
REMARK   82  A    between atoms: _212  and  _213
REMARK   83  A    between atoms: _218  and  _220
REMARK   84  A    between atoms: _220  and  _221
REMARK   85  A    between atoms: _220  and  _223
REMARK   86  A    between atoms: _223  and  _224
REMARK   87  A    between atoms: _229  and  _231
REMARK   88  A    between atoms: _231  and  _232
REMARK   89  A    between atoms: _231  and  _234
REMARK   90  A    between atoms: _234  and  _235
REMARK   91  A    between atoms: _235  and  _236
REMARK   92  A    between atoms: _238  and  _240
REMARK   93  A    between atoms: _240  and  _241
REMARK   94  A    between atoms: _240  and  _243
REMARK   95  A    between atoms: _243  and  _244
REMARK   96  A    between atoms: _249  and  _250
REMARK   97  A    between atoms: _252  and  _254
REMARK   98  A    between atoms: _254  and  _255
REMARK   99  A    between atoms: _254  and  _257
REMARK  100  A    between atoms: _257  and  _258
REMARK  101  A    between atoms: _261  and  _263
REMARK  102  A    between atoms: _263  and  _264
REMARK  103  A    between atoms: _263  and  _266
REMARK  104  A    between atoms: _266  and  _267
REMARK  105  A    between atoms: _267  and  _484
REMARK  106  A    between atoms: _268  and  _270
REMARK  107  A    between atoms: _270  and  _271
REMARK  108  A    between atoms: _270  and  _273
REMARK  109  A    between atoms: _273  and  _274
REMARK  110  A    between atoms: _277  and  _279
REMARK  111  A    between atoms: _279  and  _280
REMARK  112  A    between atoms: _279  and  _282
REMARK  113  A    between atoms: _282  and  _283
REMARK  114  A    between atoms: _288  and  _289
REMARK  115  A    between atoms: _291  and  _293
REMARK  116  A    between atoms: _293  and  _294
REMARK  117  A    between atoms: _293  and  _296
REMARK  118  A    between atoms: _296  and  _297
REMARK  119  A    between atoms: _302  and  _303
REMARK  120  A    between atoms: _305  and  _307
REMARK  121  A    between atoms: _307  and  _308
REMARK  122  A    between atoms: _307  and  _310
REMARK  123  A    between atoms: _310  and  _311
REMARK  124  A    between atoms: _311  and  _312
REMARK  125  A    between atoms: _315  and  _317
REMARK  126  A    between atoms: _317  and  _318
REMARK  127  A    between atoms: _317  and  _320
REMARK  128  A    between atoms: _320  and  _321
REMARK  129  A    between atoms: _326  and  _327
REMARK  130  A    between atoms: _329  and  _331
REMARK  131  A    between atoms: _331  and  _332
REMARK  132  A    between atoms: _331  and  _334
REMARK  133  A    between atoms: _334  and  _335
REMARK  134  A    between atoms: _340  and  _342
REMARK  135  A    between atoms: _342  and  _343
REMARK  136  A    between atoms: _342  and  _345
REMARK  137  A    between atoms: _345  and  _346
REMARK  138  A    between atoms: _349  and  _351
REMARK  139  A    between atoms: _351  and  _352
REMARK  140  A    between atoms: _351  and  _354
REMARK  141  A    between atoms: _354  and  _355
REMARK  142  A    between atoms: _360  and  _362
REMARK  143  A    between atoms: _362  and  _363
REMARK  144  A    between atoms: _362  and  _365
REMARK  145  A    between atoms: _365  and  _366
REMARK  146  A    between atoms: _376  and  _378
REMARK  147  A    between atoms: _378  and  _379
REMARK  148  A    between atoms: _378  and  _381
REMARK  149  A    between atoms: _381  and  _382
REMARK  150  A    between atoms: _388  and  _390
REMARK  151  A    between atoms: _390  and  _391
REMARK  152  A    between atoms: _390  and  _393
REMARK  153  A    between atoms: _393  and  _394
REMARK  154  A    between atoms: _397  and  _399
REMARK  155  A    between atoms: _399  and  _400
REMARK  156  A    between atoms: _399  and  _402
REMARK  157  A    between atoms: _402  and  _403
REMARK  158  A    between atoms: _406  and  _408
REMARK  159  A    between atoms: _408  and  _409
REMARK  160  A    between atoms: _408  and  _411
REMARK  161  A    between atoms: _411  and  _412
REMARK  162  A    between atoms: _412  and  _413
REMARK  163  A    between atoms: _413  and  _414
REMARK  164  A    between atoms: _423  and  _425
REMARK  165  A    between atoms: _425  and  _426
REMARK  166  A    between atoms: _425  and  _428
REMARK  167  A    between atoms: _428  and  _429
REMARK  168  A    between atoms: _434  and  _436
REMARK  169  A    between atoms: _436  and  _437
REMARK  170  A    between atoms: _436  and  _439
REMARK  171  A    between atoms: _439  and  _440
REMARK  172  A    between atoms: _440  and  _441
REMARK  173  A    between atoms: _441  and  _442
REMARK  174  A    between atoms: _451  and  _453
REMARK  175  A    between atoms: _453  and  _454
REMARK  176  A    between atoms: _457  and  _459
REMARK  177  A    between atoms: _459  and  _460
REMARK  178  A    between atoms: _462  and  _464
REMARK  179  A    between atoms: _464  and  _465
REMARK  180  A    between atoms: _464  and  _467
REMARK  181  A    between atoms: _467  and  _468
REMARK  182  A    between atoms: _478  and  _480
REMARK  183  A    between atoms: _480  and  _481
REMARK  184  A    between atoms: _480  and  _483
REMARK  185  A    between atoms: _483  and  _484
REMARK  186  A    between atoms: _485  and  _487
REMARK  187  A    between atoms: _487  and  _488
REMARK  188  A    between atoms: _491  and  _493
REMARK  189  A    between atoms: _493  and  _494
REMARK  190  A    between atoms: _493  and  _496
REMARK  191  A    between atoms: _496  and  _497
REMARK  192  A    between atoms: _500  and  _502
REMARK  193  A    between atoms: _502  and  _503
REMARK  194  A    between atoms: _502  and  _505
REMARK  195  A    between atoms: _505  and  _506
REMARK  196  A    between atoms: _511  and  _512
REMARK  197  A    between atoms: _514  and  _516
REMARK  198  A    between atoms: _516  and  _517
REMARK  199  A    between atoms: _516  and  _519
REMARK  200  A    between atoms: _519  and  _520
REMARK  201  A    between atoms: _522  and  _524
REMARK  202  A    between atoms: _524  and  _525
REMARK  203  A    between atoms: _524  and  _527
REMARK  204  A    between atoms: _527  and  _528
REMARK  205  A    between atoms: _534  and  _536
REMARK  206  A    between atoms: _536  and  _537
REMARK  207  A    between atoms: _536  and  _539
REMARK  208  A    between atoms: _539  and  _540
REMARK  209  A    between atoms: _543  and  _545
REMARK  210  A    between atoms: _545  and  _546
REMARK  211  A    between atoms: _545  and  _548
REMARK  212  A    between atoms: _548  and  _549
REMARK  213  A    between atoms: _551  and  _553
REMARK  214  A    between atoms: _553  and  _554
REMARK  215  A    between atoms: _553  and  _556
REMARK  216  A    between atoms: _556  and  _557
REMARK  217  A    between atoms: _559  and  _561
REMARK  218  A    between atoms: _561  and  _562
REMARK  219  A    between atoms: _561  and  _564
REMARK  220  A    between atoms: _564  and  _565
REMARK  221  A    between atoms: _570  and  _572
REMARK  222  A    between atoms: _572  and  _573
REMARK  223  A    between atoms: _572  and  _575
REMARK  224  A    between atoms: _575  and  _576
REMARK  225  A    between atoms: _581  and  _583
REMARK  226  A    between atoms: _583  and  _584
REMARK  227  A    between atoms: _583  and  _586
REMARK  228  A    between atoms: _586  and  _587
REMARK  229  A    between atoms: _590  and  _592
REMARK  230  A    between atoms: _592  and  _593
REMARK  231  A    between atoms: _596  and  _598
REMARK  232  A    between atoms: _598  and  _599
REMARK  233  A    between atoms: _598  and  _601
REMARK  234  A    between atoms: _601  and  _602
REMARK  235  A    between atoms: _607  and  _608
REMARK  236  A    between atoms: _610  and  _612
REMARK  237  A    between atoms: _612  and  _613
REMARK  238  A    between atoms: _612  and  _615
REMARK  239  A    between atoms: _615  and  _616
REMARK  240  A    between atoms: _621  and  _622
REMARK  241  A    between atoms: _624  and  _626
REMARK  242  A    between atoms: _626  and  _627
REMARK  243  A    between atoms: _626  and  _629
REMARK  244  A    between atoms: _632  and  _634
REMARK  245  A    between atoms: _634  and  _635
REMARK  246  A    between atoms: _634  and  _637
REMARK  247  A    between atoms: _637  and  _638
REMARK  248  A    between atoms: _643  and  _645
REMARK  249  A    between atoms: _645  and  _646
REMARK  250  A    between atoms: _649  and  _651
REMARK  251  A    between atoms: _651  and  _652
REMARK  252  A    between atoms: _651  and  _654
REMARK  253  A    between atoms: _654  and  _655
REMARK  254  A    between atoms: _655  and  _656
REMARK  255  A    between atoms: _656  and  _657
REMARK  256  A    between atoms: _666  and  _668
REMARK  257  A    between atoms: _668  and  _669
REMARK  258  A    between atoms: _668  and  _671
REMARK  259  A    between atoms: _671  and  _672
REMARK  260  A    between atoms: _675  and  _677
REMARK  261  A    between atoms: _677  and  _678
REMARK  262  A    between atoms: _677  and  _680
REMARK  263  A    between atoms: _680  and  _681
REMARK  264  A    between atoms: _684  and  _686
REMARK  265  A    between atoms: _686  and  _687
REMARK  266  A    between atoms: _686  and  _689
REMARK  267  A    between atoms: _689  and  _690
REMARK                            x       y       z     vdW  Elec       q    Type
REMARK                         _______ _______ _______ _____ _____    ______ ____
ROOT
ATOM      1  O   HOH     1      -8.137  14.767  13.229  0.00  0.00    +0.000 OA
ENDROOT
TORSDOF 0
REMARK  Name = ../refined-set-2016/2olb/2olb_pocket.pdb
REMARK  267 active torsions:
REMARK  status: ('A' for Active; 'I' for Inactive)
REMARK    1  A    between atoms: _1  and  _3
REMARK    2  A    between atoms: _3  and  _4
REMARK    3  A    between atoms: _3  and  _6
REMARK    4  A    between atoms: _6  and  _7
REMARK    5  A    between atoms: _12  and  _14
REMARK    6  A    between atoms: _14  and  _15
REMARK    7  A    between atoms: _17  and  _19
REMARK    8  A    between atoms: _19  and  _20
REMARK    9  A    between atoms: _19  and  _22
REMARK   10  A    between atoms: _22  and  _23
REMARK   11  A    between atoms: _23  and  _24
REMARK   12  A    between atoms: _29  and  _31
REMARK   13  A    between atoms: _31  and  _32
REMARK   14  A    between atoms: _31  and  _34
REMARK   15  A    between atoms: _34  and  _35
REMARK   16  A    between atoms: _38  and  _40
REMARK   17  A    between atoms: _40  and  _41
REMARK   18  A    between atoms: _40  and  _43
REMARK   19  A    between atoms: _43  and  _44
REMARK   20  A    between atoms: _44  and  _45
REMARK   21  A    between atoms: _48  and  _50
REMARK   22  A    between atoms: _50  and  _51
REMARK   23  A    between atoms: _53  and  _55
REMARK   24  A    between atoms: _55  and  _56
REMARK   25  A    between atoms: _55  and  _58
REMARK   26  A    between atoms: _62  and  _63
REMARK   27  A    between atoms: _68  and  _70
REMARK   28  A    between atoms: _70  and  _71
REMARK   29  A    between atoms: _70  and  _73
REMARK   30  A    between atoms: _73  and  _74
REMARK   31  A    between atoms: _74  and  _75
REMARK   32  A    between atoms: _78  and  _80
REMARK   33  A    between atoms: _80  and  _81
REMARK   34  A    between atoms: _80  and  _83
REMARK   35  A    between atoms: _83  and  _84
REMARK   36  A    between atoms: _86  and  _88
REMARK   37  A    between atoms: _88  and  _89
REMARK   38  A    between atoms: _88  and  _91
REMARK   39  A    between atoms: _91  and  _92
REMARK   40  A    between atoms: _97  and  _99
REMARK   41  A    between atoms: _99  and  _100
REMARK   42  A    between atoms: _99  and  _102
REMARK   43  A    between atoms: _102  and  _103
REMARK   44  A    between atoms: _103  and  _104
REMARK   45  A    between atoms: _104  and  _105
REMARK   46  A    between atoms: _115  and  _116
REMARK   47  A    between atoms: _121  and  _123
REMARK   48  A    between atoms: _123  and  _124
REMARK   49  A    between atoms: _123  and  _126
REMARK   50  A    between atoms: _126  and  _127
REMARK   51  A    between atoms: _132  and  _133
REMARK   52  A    between atoms: _135  and  _137
REMARK   53  A    between atoms: _137  and  _138
REMARK   54  A    between atoms: _137  and  _140
REMARK   55  A    between atoms: _140  and  _141
REMARK   56  A    between atoms: _146  and  _147
REMARK   57  A    between atoms: _149  and  _151
REMARK   58  A    between atoms: _151  and  _152
REMARK   59  A    between atoms: _151  and  _154
REMARK   60  A    between atoms: _157  and  _159
REMARK   61  A    between atoms: _159  and  _160
REMARK   62  A    between atoms: _159  and  _162
REMARK   63  A    between atoms: _162  and  _163
REMARK   64  A    between atoms: _169  and  _170
REMARK   65  A    between atoms: _175  and  _177
REMARK   66  A    between atoms: _177  and  _178
REMARK   67  A    between atoms: _177  and  _180
REMARK   68  A    between atoms: _180  and  _181
REMARK   69  A    between atoms: _183  and  _185
REMARK   70  A    between atoms: _185  and  _186
REMARK   71  A    between atoms: _185  and  _188
REMARK   72  A    between atoms: _188  and  _189
REMARK   73  A    between atoms: _189  and  _190
REMARK   74  A    between atoms: _193  and  _195
REMARK   75  A    between atoms: _195  and  _196
REMARK   76  A    between atoms: _195  and  _198
REMARK   77  A    between atoms: _198  and  _199
REMARK   78  A    between atoms: _204  and  _205
REMARK   79  A    between atoms: _207  and  _209
REMARK   80  A    between atoms: _209  and  _210
REMARK   81  A    between atoms: _209  and  _212
REMARK   82  A    between atoms: _212  and  _213
REMARK   83  A    between atoms: _218  and  _220
REMARK   84  A    between atoms: _220  and  _221
REMARK   85  A    between atoms: _220  and  _223
REMARK   86  A    between atoms: _223  and  _224
REMARK   87  A    between atoms: _229  and  _231
REMARK   88  A    between atoms: _231  and  _232
REMARK   89  A    between atoms: _231  and  _234
REMARK   90  A    between atoms: _234  and  _235
REMARK   91  A    between atoms: _235  and  _236
REMARK   92  A    between atoms: _238  and  _240
REMARK   93  A    between atoms: _240  and  _241
REMARK   94  A    between atoms: _240  and  _243
REMARK   95  A    between atoms: _243  and  _244
REMARK   96  A    between atoms: _249  and  _250
REMARK   97  A    between atoms: _252  and  _254
REMARK   98  A    between atoms: _254  and  _255
REMARK   99  A    between atoms: _254  and  _257
REMARK  100  A    between atoms: _257  and  _258
REMARK  101  A    between atoms: _261  and  _263
REMARK  102  A    between atoms: _263  and  _264
REMARK  103  A    between atoms: _263  and  _266
REMARK  104  A    between atoms: _266  and  _267
REMARK  105  A    between atoms: _267  and  _484
REMARK  106  A    between atoms: _268  and  _270
REMARK  107  A    between atoms: _270  and  _271
REMARK  108  A    between atoms: _270  and  _273
REMARK  109  A    between atoms: _273  and  _274
REMARK  110  A    between atoms: _277  and  _279
REMARK  111  A    between atoms: _279  and  _280
REMARK  112  A    between atoms: _279  and  _282
REMARK  113  A    between atoms: _282  and  _283
REMARK  114  A    between atoms: _288  and  _289
REMARK  115  A    between atoms: _291  and  _293
REMARK  116  A    between atoms: _293  and  _294
REMARK  117  A    between atoms: _293  and  _296
REMARK  118  A    between atoms: _296  and  _297
REMARK  119  A    between atoms: _302  and  _303
REMARK  120  A    between atoms: _305  and  _307
REMARK  121  A    between atoms: _307  and  _308
REMARK  122  A    between atoms: _307  and  _310
REMARK  123  A    between atoms: _310  and  _311
REMARK  124  A    between atoms: _311  and  _312
REMARK  125  A    between atoms: _315  and  _317
REMARK  126  A    between atoms: _317  and  _318
REMARK  127  A    between atoms: _317  and  _320
REMARK  128  A    between atoms: _320  and  _321
REMARK  129  A    between atoms: _326  and  _327
REMARK  130  A    between atoms: _329  and  _331
REMARK  131  A    between atoms: _331  and  _332
REMARK  132  A    between atoms: _331  and  _334
REMARK  133  A    between atoms: _334  and  _335
REMARK  134  A    between atoms: _340  and  _342
REMARK  135  A    between atoms: _342  and  _343
REMARK  136  A    between atoms: _342  and  _345
REMARK  137  A    between atoms: _345  and  _346
REMARK  138  A    between atoms: _349  and  _351
REMARK  139  A    between atoms: _351  and  _352
REMARK  140  A    between atoms: _351  and  _354
REMARK  141  A    between atoms: _354  and  _355
REMARK  142  A    between atoms: _360  and  _362
REMARK  143  A    between atoms: _362  and  _363
REMARK  144  A    between atoms: _362  and  _365
REMARK  145  A    between atoms: _365  and  _366
REMARK  146  A    between atoms: _376  and  _378
REMARK  147  A    between atoms: _378  and  _379
REMARK  148  A    between atoms: _378  and  _381
REMARK  149  A    between atoms: _381  and  _382
REMARK  150  A    between atoms: _388  and  _390
REMARK  151  A    between atoms: _390  and  _391
REMARK  152  A    between atoms: _390  and  _393
REMARK  153  A    between atoms: _393  and  _394
REMARK  154  A    between atoms: _397  and  _399
REMARK  155  A    between atoms: _399  and  _400
REMARK  156  A    between atoms: _399  and  _402
REMARK  157  A    between atoms: _402  and  _403
REMARK  158  A    between atoms: _406  and  _408
REMARK  159  A    between atoms: _408  and  _409
REMARK  160  A    between atoms: _408  and  _411
REMARK  161  A    between atoms: _411  and  _412
REMARK  162  A    between atoms: _412  and  _413
REMARK  163  A    between atoms: _413  and  _414
REMARK  164  A    between atoms: _423  and  _425
REMARK  165  A    between atoms: _425  and  _426
REMARK  166  A    between atoms: _425  and  _428
REMARK  167  A    between atoms: _428  and  _429
REMARK  168  A    between atoms: _434  and  _436
REMARK  169  A    between atoms: _436  and  _437
REMARK  170  A    between atoms: _436  and  _439
REMARK  171  A    between atoms: _439  and  _440
REMARK  172  A    between atoms: _440  and  _441
REMARK  173  A    between atoms: _441  and  _442
REMARK  174  A    between atoms: _451  and  _453
REMARK  175  A    between atoms: _453  and  _454
REMARK  176  A    between atoms: _457  and  _459
REMARK  177  A    between atoms: _459  and  _460
REMARK  178  A    between atoms: _462  and  _464
REMARK  179  A    between atoms: _464  and  _465
REMARK  180  A    between atoms: _464  and  _467
REMARK  181  A    between atoms: _467  and  _468
REMARK  182  A    between atoms: _478  and  _480
REMARK  183  A    between atoms: _480  and  _481
REMARK  184  A    between atoms: _480  and  _483
REMARK  185  A    between atoms: _483  and  _484
REMARK  186  A    between atoms: _485  and  _487
REMARK  187  A    between atoms: _487  and  _488
REMARK  188  A    between atoms: _491  and  _493
REMARK  189  A    between atoms: _493  and  _494
REMARK  190  A    between atoms: _493  and  _496
REMARK  191  A    between atoms: _496  and  _497
REMARK  192  A    between atoms: _500  and  _502
REMARK  193  A    between atoms: _502  and  _503
REMARK  194  A    between atoms: _502  and  _505
REMARK  195  A    between atoms: _505  and  _506
REMARK  196  A    between atoms: _511  and  _512
REMARK  197  A    between atoms: _514  and  _516
REMARK  198  A    between atoms: _516  and  _517
REMARK  199  A    between atoms: _516  and  _519
REMARK  200  A    between atoms: _519  and  _520
REMARK  201  A    between atoms: _522  and  _524
REMARK  202  A    between atoms: _524  and  _525
REMARK  203  A    between atoms: _524  and  _527
REMARK  204  A    between atoms: _527  and  _528
REMARK  205  A    between atoms: _534  and  _536
REMARK  206  A    between atoms: _536  and  _537
REMARK  207  A    between atoms: _536  and  _539
REMARK  208  A    between atoms: _539  and  _540
REMARK  209  A    between atoms: _543  and  _545
REMARK  210  A    between atoms: _545  and  _546
REMARK  211  A    between atoms: _545  and  _548
REMARK  212  A    between atoms: _548  and  _549
REMARK  213  A    between atoms: _551  and  _553
REMARK  214  A    between atoms: _553  and  _554
REMARK  215  A    between atoms: _553  and  _556
REMARK  216  A    between atoms: _556  and  _557
REMARK  217  A    between atoms: _559  and  _561
REMARK  218  A    between atoms: _561  and  _562
REMARK  219  A    between atoms: _561  and  _564
REMARK  220  A    between atoms: _564  and  _565
REMARK  221  A    between atoms: _570  and  _572
REMARK  222  A    between atoms: _572  and  _573
REMARK  223  A    between atoms: _572  and  _575
REMARK  224  A    between atoms: _575  and  _576
REMARK  225  A    between atoms: _581  and  _583
REMARK  226  A    between atoms: _583  and  _584
REMARK  227  A    between atoms: _583  and  _586
REMARK  228  A    between atoms: _586  and  _587
REMARK  229  A    between atoms: _590  and  _592
REMARK  230  A    between atoms: _592  and  _593
REMARK  231  A    between atoms: _596  and  _598
REMARK  232  A    between atoms: _598  and  _599
REMARK  233  A    between atoms: _598  and  _601
REMARK  234  A    between atoms: _601  and  _602
REMARK  235  A    between atoms: _607  and  _608
REMARK  236  A    between atoms: _610  and  _612
REMARK  237  A    between atoms: _612  and  _613
REMARK  238  A    between atoms: _612  and  _615
REMARK  239  A    between atoms: _615  and  _616
REMARK  240  A    between atoms: _621  and  _622
REMARK  241  A    between atoms: _624  and  _626
REMARK  242  A    between atoms: _626  and  _627
REMARK  243  A    between atoms: _626  and  _629
REMARK  244  A    between atoms: _632  and  _634
REMARK  245  A    between atoms: _634  and  _635
REMARK  246  A    between atoms: _634  and  _637
REMARK  247  A    between atoms: _637  and  _638
REMARK  248  A    between atoms: _643  and  _645
REMARK  249  A    between atoms: _645  and  _646
REMARK  250  A    between atoms: _649  and  _651
REMARK  251  A    between atoms: _651  and  _652
REMARK  252  A    between atoms: _651  and  _654
REMARK  253  A    between atoms: _654  and  _655
REMARK  254  A    between atoms: _655  and  _656
REMARK  255  A    between atoms: _656  and  _657
REMARK  256  A    between atoms: _666  and  _668
REMARK  257  A    between atoms: _668  and  _669
REMARK  258  A    between atoms: _668  and  _671
REMARK  259  A    between atoms: _671  and  _672
REMARK  260  A    between atoms: _675  and  _677
REMARK  261  A    between atoms: _677  and  _678
REMARK  262  A    between atoms: _677  and  _680
REMARK  263  A    between atoms: _680  and  _681
REMARK  264  A    between atoms: _684  and  _686
REMARK  265  A    between atoms: _686  and  _687
REMARK  266  A    between atoms: _686  and  _689
REMARK  267  A    between atoms: _689  and  _690
REMARK                            x       y       z     vdW  Elec       q    Type
REMARK                         _______ _______ _______ _____ _____    ______ ____
ROOT
ATOM      1  O   HOH     1       5.767   8.077   7.683  0.00  0.00    +0.000 OA
ENDROOT
TORSDOF 0
REMARK  Name = ../refined-set-2016/2olb/2olb_pocket.pdb
REMARK  267 active torsions:
REMARK  status: ('A' for Active; 'I' for Inactive)
REMARK    1  A    between atoms: _1  and  _3
REMARK    2  A    between atoms: _3  and  _4
REMARK    3  A    between atoms: _3  and  _6
REMARK    4  A    between atoms: _6  and  _7
REMARK    5  A    between atoms: _12  and  _14
REMARK    6  A    between atoms: _14  and  _15
REMARK    7  A    between atoms: _17  and  _19
REMARK    8  A    between atoms: _19  and  _20
REMARK    9  A    between atoms: _19  and  _22
REMARK   10  A    between atoms: _22  and  _23
REMARK   11  A    between atoms: _23  and  _24
REMARK   12  A    between atoms: _29  and  _31
REMARK   13  A    between atoms: _31  and  _32
REMARK   14  A    between atoms: _31  and  _34
REMARK   15  A    between atoms: _34  and  _35
REMARK   16  A    between atoms: _38  and  _40
REMARK   17  A    between atoms: _40  and  _41
REMARK   18  A    between atoms: _40  and  _43
REMARK   19  A    between atoms: _43  and  _44
REMARK   20  A    between atoms: _44  and  _45
REMARK   21  A    between atoms: _48  and  _50
REMARK   22  A    between atoms: _50  and  _51
REMARK   23  A    between atoms: _53  and  _55
REMARK   24  A    between atoms: _55  and  _56
REMARK   25  A    between atoms: _55  and  _58
REMARK   26  A    between atoms: _62  and  _63
REMARK   27  A    between atoms: _68  and  _70
REMARK   28  A    between atoms: _70  and  _71
REMARK   29  A    between atoms: _70  and  _73
REMARK   30  A    between atoms: _73  and  _74
REMARK   31  A    between atoms: _74  and  _75
REMARK   32  A    between atoms: _78  and  _80
REMARK   33  A    between atoms: _80  and  _81
REMARK   34  A    between atoms: _80  and  _83
REMARK   35  A    between atoms: _83  and  _84
REMARK   36  A    between atoms: _86  and  _88
REMARK   37  A    between atoms: _88  and  _89
REMARK   38  A    between atoms: _88  and  _91
REMARK   39  A    between atoms: _91  and  _92
REMARK   40  A    between atoms: _97  and  _99
REMARK   41  A    between atoms: _99  and  _100
REMARK   42  A    between atoms: _99  and  _102
REMARK   43  A    between atoms: _102  and  _103
REMARK   44  A    between atoms: _103  and  _104
REMARK   45  A    between atoms: _104  and  _105
REMARK   46  A    between atoms: _115  and  _116
REMARK   47  A    between atoms: _121  and  _123
REMARK   48  A    between atoms: _123  and  _124
REMARK   49  A    between atoms: _123  and  _126
REMARK   50  A    between atoms: _126  and  _127
REMARK   51  A    between atoms: _132  and  _133
REMARK   52  A    between atoms: _135  and  _137
REMARK   53  A    between atoms: _137  and  _138
REMARK   54  A    between atoms: _137  and  _140
REMARK   55  A    between atoms: _140  and  _141
REMARK   56  A    between atoms: _146  and  _147
REMARK   57  A    between atoms: _149  and  _151
REMARK   58  A    between atoms: _151  and  _152
REMARK   59  A    between atoms: _151  and  _154
REMARK   60  A    between atoms: _157  and  _159
REMARK   61  A    between atoms: _159  and  _160
REMARK   62  A    between atoms: _159  and  _162
REMARK   63  A    between atoms: _162  and  _163
REMARK   64  A    between atoms: _169  and  _170
REMARK   65  A    between atoms: _175  and  _177
REMARK   66  A    between atoms: _177  and  _178
REMARK   67  A    between atoms: _177  and  _180
REMARK   68  A    between atoms: _180  and  _181
REMARK   69  A    between atoms: _183  and  _185
REMARK   70  A    between atoms: _185  and  _186
REMARK   71  A    between atoms: _185  and  _188
REMARK   72  A    between atoms: _188  and  _189
REMARK   73  A    between atoms: _189  and  _190
REMARK   74  A    between atoms: _193  and  _195
REMARK   75  A    between atoms: _195  and  _196
REMARK   76  A    between atoms: _195  and  _198
REMARK   77  A    between atoms: _198  and  _199
REMARK   78  A    between atoms: _204  and  _205
REMARK   79  A    between atoms: _207  and  _209
REMARK   80  A    between atoms: _209  and  _210
REMARK   81  A    between atoms: _209  and  _212
REMARK   82  A    between atoms: _212  and  _213
REMARK   83  A    between atoms: _218  and  _220
REMARK   84  A    between atoms: _220  and  _221
REMARK   85  A    between atoms: _220  and  _223
REMARK   86  A    between atoms: _223  and  _224
REMARK   87  A    between atoms: _229  and  _231
REMARK   88  A    between atoms: _231  and  _232
REMARK   89  A    between atoms: _231  and  _234
REMARK   90  A    between atoms: _234  and  _235
REMARK   91  A    between atoms: _235  and  _236
REMARK   92  A    between atoms: _238  and  _240
REMARK   93  A    between atoms: _240  and  _241
REMARK   94  A    between atoms: _240  and  _243
REMARK   95  A    between atoms: _243  and  _244
REMARK   96  A    between atoms: _249  and  _250
REMARK   97  A    between atoms: _252  and  _254
REMARK   98  A    between atoms: _254  and  _255
REMARK   99  A    between atoms: _254  and  _257
REMARK  100  A    between atoms: _257  and  _258
REMARK  101  A    between atoms: _261  and  _263
REMARK  102  A    between atoms: _263  and  _264
REMARK  103  A    between atoms: _263  and  _266
REMARK  104  A    between atoms: _266  and  _267
REMARK  105  A    between atoms: _267  and  _484
REMARK  106  A    between atoms: _268  and  _270
REMARK  107  A    between atoms: _270  and  _271
REMARK  108  A    between atoms: _270  and  _273
REMARK  109  A    between atoms: _273  and  _274
REMARK  110  A    between atoms: _277  and  _279
REMARK  111  A    between atoms: _279  and  _280
REMARK  112  A    between atoms: _279  and  _282
REMARK  113  A    between atoms: _282  and  _283
REMARK  114  A    between atoms: _288  and  _289
REMARK  115  A    between atoms: _291  and  _293
REMARK  116  A    between atoms: _293  and  _294
REMARK  117  A    between atoms: _293  and  _296
REMARK  118  A    between atoms: _296  and  _297
REMARK  119  A    between atoms: _302  and  _303
REMARK  120  A    between atoms: _305  and  _307
REMARK  121  A    between atoms: _307  and  _308
REMARK  122  A    between atoms: _307  and  _310
REMARK  123  A    between atoms: _310  and  _311
REMARK  124  A    between atoms: _311  and  _312
REMARK  125  A    between atoms: _315  and  _317
REMARK  126  A    between atoms: _317  and  _318
REMARK  127  A    between atoms: _317  and  _320
REMARK  128  A    between atoms: _320  and  _321
REMARK  129  A    between atoms: _326  and  _327
REMARK  130  A    between atoms: _329  and  _331
REMARK  131  A    between atoms: _331  and  _332
REMARK  132  A    between atoms: _331  and  _334
REMARK  133  A    between atoms: _334  and  _335
REMARK  134  A    between atoms: _340  and  _342
REMARK  135  A    between atoms: _342  and  _343
REMARK  136  A    between atoms: _342  and  _345
REMARK  137  A    between atoms: _345  and  _346
REMARK  138  A    between atoms: _349  and  _351
REMARK  139  A    between atoms: _351  and  _352
REMARK  140  A    between atoms: _351  and  _354
REMARK  141  A    between atoms: _354  and  _355
REMARK  142  A    between atoms: _360  and  _362
REMARK  143  A    between atoms: _362  and  _363
REMARK  144  A    between atoms: _362  and  _365
REMARK  145  A    between atoms: _365  and  _366
REMARK  146  A    between atoms: _376  and  _378
REMARK  147  A    between atoms: _378  and  _379
REMARK  148  A    between atoms: _378  and  _381
REMARK  149  A    between atoms: _381  and  _382
REMARK  150  A    between atoms: _388  and  _390
REMARK  151  A    between atoms: _390  and  _391
REMARK  152  A    between atoms: _390  and  _393
REMARK  153  A    between atoms: _393  and  _394
REMARK  154  A    between atoms: _397  and  _399
REMARK  155  A    between atoms: _399  and  _400
REMARK  156  A    between atoms: _399  and  _402
REMARK  157  A    between atoms: _402  and  _403
REMARK  158  A    between atoms: _406  and  _408
REMARK  159  A    between atoms: _408  and  _409
REMARK  160  A    between atoms: _408  and  _411
REMARK  161  A    between atoms: _411  and  _412
REMARK  162  A    between atoms: _412  and  _413
REMARK  163  A    between atoms: _413  and  _414
REMARK  164  A    between atoms: _423  and  _425
REMARK  165  A    between atoms: _425  and  _426
REMARK  166  A    between atoms: _425  and  _428
REMARK  167  A    between atoms: _428  and  _429
REMARK  168  A    between atoms: _434  and  _436
REMARK  169  A    between atoms: _436  and  _437
REMARK  170  A    between atoms: _436  and  _439
REMARK  171  A    between atoms: _439  and  _440
REMARK  172  A    between atoms: _440  and  _441
REMARK  173  A    between atoms: _441  and  _442
REMARK  174  A    between atoms: _451  and  _453
REMARK  175  A    between atoms: _453  and  _454
REMARK  176  A    between atoms: _457  and  _459
REMARK  177  A    between atoms: _459  and  _460
REMARK  178  A    between atoms: _462  and  _464
REMARK  179  A    between atoms: _464  and  _465
REMARK  180  A    between atoms: _464  and  _467
REMARK  181  A    between atoms: _467  and  _468
REMARK  182  A    between atoms: _478  and  _480
REMARK  183  A    between atoms: _480  and  _481
REMARK  184  A    between atoms: _480  and  _483
REMARK  185  A    between atoms: _483  and  _484
REMARK  186  A    between atoms: _485  and  _487
REMARK  187  A    between atoms: _487  and  _488
REMARK  188  A    between atoms: _491  and  _493
REMARK  189  A    between atoms: _493  and  _494
REMARK  190  A    between atoms: _493  and  _496
REMARK  191  A    between atoms: _496  and  _497
REMARK  192  A    between atoms: _500  and  _502
REMARK  193  A    between atoms: _502  and  _503
REMARK  194  A    between atoms: _502  and  _505
REMARK  195  A    between atoms: _505  and  _506
REMARK  196  A    between atoms: _511  and  _512
REMARK  197  A    between atoms: _514  and  _516
REMARK  198  A    between atoms: _516  and  _517
REMARK  199  A    between atoms: _516  and  _519
REMARK  200  A    between atoms: _519  and  _520
REMARK  201  A    between atoms: _522  and  _524
REMARK  202  A    between atoms: _524  and  _525
REMARK  203  A    between atoms: _524  and  _527
REMARK  204  A    between atoms: _527  and  _528
REMARK  205  A    between atoms: _534  and  _536
REMARK  206  A    between atoms: _536  and  _537
REMARK  207  A    between atoms: _536  and  _539
REMARK  208  A    between atoms: _539  and  _540
REMARK  209  A    between atoms: _543  and  _545
REMARK  210  A    between atoms: _545  and  _546
REMARK  211  A    between atoms: _545  and  _548
REMARK  212  A    between atoms: _548  and  _549
REMARK  213  A    between atoms: _551  and  _553
REMARK  214  A    between atoms: _553  and  _554
REMARK  215  A    between atoms: _553  and  _556
REMARK  216  A    between atoms: _556  and  _557
REMARK  217  A    between atoms: _559  and  _561
REMARK  218  A    between atoms: _561  and  _562
REMARK  219  A    between atoms: _561  and  _564
REMARK  220  A    between atoms: _564  and  _565
REMARK  221  A    between atoms: _570  and  _572
REMARK  222  A    between atoms: _572  and  _573
REMARK  223  A    between atoms: _572  and  _575
REMARK  224  A    between atoms: _575  and  _576
REMARK  225  A    between atoms: _581  and  _583
REMARK  226  A    between atoms: _583  and  _584
REMARK  227  A    between atoms: _583  and  _586
REMARK  228  A    between atoms: _586  and  _587
REMARK  229  A    between atoms: _590  and  _592
REMARK  230  A    between atoms: _592  and  _593
REMARK  231  A    between atoms: _596  and  _598
REMARK  232  A    between atoms: _598  and  _599
REMARK  233  A    between atoms: _598  and  _601
REMARK  234  A    between atoms: _601  and  _602
REMARK  235  A    between atoms: _607  and  _608
REMARK  236  A    between atoms: _610  and  _612
REMARK  237  A    between atoms: _612  and  _613
REMARK  238  A    between atoms: _612  and  _615
REMARK  239  A    between atoms: _615  and  _616
REMARK  240  A    between atoms: _621  and  _622
REMARK  241  A    between atoms: _624  and  _626
REMARK  242  A    between atoms: _626  and  _627
REMARK  243  A    between atoms: _626  and  _629
REMARK  244  A    between atoms: _632  and  _634
REMARK  245  A    between atoms: _634  and  _635
REMARK  246  A    between atoms: _634  and  _637
REMARK  247  A    between atoms: _637  and  _638
REMARK  248  A    between atoms: _643  and  _645
REMARK  249  A    between atoms: _645  and  _646
REMARK  250  A    between atoms: _649  and  _651
REMARK  251  A    between atoms: _651  and  _652
REMARK  252  A    between atoms: _651  and  _654
REMARK  253  A    between atoms: _654  and  _655
REMARK  254  A    between atoms: _655  and  _656
REMARK  255  A    between atoms: _656  and  _657
REMARK  256  A    between atoms: _666  and  _668
REMARK  257  A    between atoms: _668  and  _669
REMARK  258  A    between atoms: _668  and  _671
REMARK  259  A    between atoms: _671  and  _672
REMARK  260  A    between atoms: _675  and  _677
REMARK  261  A    between atoms: _677  and  _678
REMARK  262  A    between atoms: _677  and  _680
REMARK  263  A    between atoms: _680  and  _681
REMARK  264  A    between atoms: _684  and  _686
REMARK  265  A    between atoms: _686  and  _687
REMARK  266  A    between atoms: _686  and  _689
REMARK  267  A    between atoms: _689  and  _690
REMARK                            x       y       z     vdW  Elec       q    Type
REMARK                         _______ _______ _______ _____ _____    ______ ____
ROOT
ATOM      1  O   HOH     1       6.988  19.574  22.207  0.00  0.00    +0.000 OA
ENDROOT
TORSDOF 0
REMARK  Name = ../refined-set-2016/2olb/2olb_pocket.pdb
REMARK  267 active torsions:
REMARK  status: ('A' for Active; 'I' for Inactive)
REMARK    1  A    between atoms: _1  and  _3
REMARK    2  A    between atoms: _3  and  _4
REMARK    3  A    between atoms: _3  and  _6
REMARK    4  A    between atoms: _6  and  _7
REMARK    5  A    between atoms: _12  and  _14
REMARK    6  A    between atoms: _14  and  _15
REMARK    7  A    between atoms: _17  and  _19
REMARK    8  A    between atoms: _19  and  _20
REMARK    9  A    between atoms: _19  and  _22
REMARK   10  A    between atoms: _22  and  _23
REMARK   11  A    between atoms: _23  and  _24
REMARK   12  A    between atoms: _29  and  _31
REMARK   13  A    between atoms: _31  and  _32
REMARK   14  A    between atoms: _31  and  _34
REMARK   15  A    between atoms: _34  and  _35
REMARK   16  A    between atoms: _38  and  _40
REMARK   17  A    between atoms: _40  and  _41
REMARK   18  A    between atoms: _40  and  _43
REMARK   19  A    between atoms: _43  and  _44
REMARK   20  A    between atoms: _44  and  _45
REMARK   21  A    between atoms: _48  and  _50
REMARK   22  A    between atoms: _50  and  _51
REMARK   23  A    between atoms: _53  and  _55
REMARK   24  A    between atoms: _55  and  _56
REMARK   25  A    between atoms: _55  and  _58
REMARK   26  A    between atoms: _62  and  _63
REMARK   27  A    between atoms: _68  and  _70
REMARK   28  A    between atoms: _70  and  _71
REMARK   29  A    between atoms: _70  and  _73
REMARK   30  A    between atoms: _73  and  _74
REMARK   31  A    between atoms: _74  and  _75
REMARK   32  A    between atoms: _78  and  _80
REMARK   33  A    between atoms: _80  and  _81
REMARK   34  A    between atoms: _80  and  _83
REMARK   35  A    between atoms: _83  and  _84
REMARK   36  A    between atoms: _86  and  _88
REMARK   37  A    between atoms: _88  and  _89
REMARK   38  A    between atoms: _88  and  _91
REMARK   39  A    between atoms: _91  and  _92
REMARK   40  A    between atoms: _97  and  _99
REMARK   41  A    between atoms: _99  and  _100
REMARK   42  A    between atoms: _99  and  _102
REMARK   43  A    between atoms: _102  and  _103
REMARK   44  A    between atoms: _103  and  _104
REMARK   45  A    between atoms: _104  and  _105
REMARK   46  A    between atoms: _115  and  _116
REMARK   47  A    between atoms: _121  and  _123
REMARK   48  A    between atoms: _123  and  _124
REMARK   49  A    between atoms: _123  and  _126
REMARK   50  A    between atoms: _126  and  _127
REMARK   51  A    between atoms: _132  and  _133
REMARK   52  A    between atoms: _135  and  _137
REMARK   53  A    between atoms: _137  and  _138
REMARK   54  A    between atoms: _137  and  _140
REMARK   55  A    between atoms: _140  and  _141
REMARK   56  A    between atoms: _146  and  _147
REMARK   57  A    between atoms: _149  and  _151
REMARK   58  A    between atoms: _151  and  _152
REMARK   59  A    between atoms: _151  and  _154
REMARK   60  A    between atoms: _157  and  _159
REMARK   61  A    between atoms: _159  and  _160
REMARK   62  A    between atoms: _159  and  _162
REMARK   63  A    between atoms: _162  and  _163
REMARK   64  A    between atoms: _169  and  _170
REMARK   65  A    between atoms: _175  and  _177
REMARK   66  A    between atoms: _177  and  _178
REMARK   67  A    between atoms: _177  and  _180
REMARK   68  A    between atoms: _180  and  _181
REMARK   69  A    between atoms: _183  and  _185
REMARK   70  A    between atoms: _185  and  _186
REMARK   71  A    between atoms: _185  and  _188
REMARK   72  A    between atoms: _188  and  _189
REMARK   73  A    between atoms: _189  and  _190
REMARK   74  A    between atoms: _193  and  _195
REMARK   75  A    between atoms: _195  and  _196
REMARK   76  A    between atoms: _195  and  _198
REMARK   77  A    between atoms: _198  and  _199
REMARK   78  A    between atoms: _204  and  _205
REMARK   79  A    between atoms: _207  and  _209
REMARK   80  A    between atoms: _209  and  _210
REMARK   81  A    between atoms: _209  and  _212
REMARK   82  A    between atoms: _212  and  _213
REMARK   83  A    between atoms: _218  and  _220
REMARK   84  A    between atoms: _220  and  _221
REMARK   85  A    between atoms: _220  and  _223
REMARK   86  A    between atoms: _223  and  _224
REMARK   87  A    between atoms: _229  and  _231
REMARK   88  A    between atoms: _231  and  _232
REMARK   89  A    between atoms: _231  and  _234
REMARK   90  A    between atoms: _234  and  _235
REMARK   91  A    between atoms: _235  and  _236
REMARK   92  A    between atoms: _238  and  _240
REMARK   93  A    between atoms: _240  and  _241
REMARK   94  A    between atoms: _240  and  _243
REMARK   95  A    between atoms: _243  and  _244
REMARK   96  A    between atoms: _249  and  _250
REMARK   97  A    between atoms: _252  and  _254
REMARK   98  A    between atoms: _254  and  _255
REMARK   99  A    between atoms: _254  and  _257
REMARK  100  A    between atoms: _257  and  _258
REMARK  101  A    between atoms: _261  and  _263
REMARK  102  A    between atoms: _263  and  _264
REMARK  103  A    between atoms: _263  and  _266
REMARK  104  A    between atoms: _266  and  _267
REMARK  105  A    between atoms: _267  and  _484
REMARK  106  A    between atoms: _268  and  _270
REMARK  107  A    between atoms: _270  and  _271
REMARK  108  A    between atoms: _270  and  _273
REMARK  109  A    between atoms: _273  and  _274
REMARK  110  A    between atoms: _277  and  _279
REMARK  111  A    between atoms: _279  and  _280
REMARK  112  A    between atoms: _279  and  _282
REMARK  113  A    between atoms: _282  and  _283
REMARK  114  A    between atoms: _288  and  _289
REMARK  115  A    between atoms: _291  and  _293
REMARK  116  A    between atoms: _293  and  _294
REMARK  117  A    between atoms: _293  and  _296
REMARK  118  A    between atoms: _296  and  _297
REMARK  119  A    between atoms: _302  and  _303
REMARK  120  A    between atoms: _305  and  _307
REMARK  121  A    between atoms: _307  and  _308
REMARK  122  A    between atoms: _307  and  _310
REMARK  123  A    between atoms: _310  and  _311
REMARK  124  A    between atoms: _311  and  _312
REMARK  125  A    between atoms: _315  and  _317
REMARK  126  A    between atoms: _317  and  _318
REMARK  127  A    between atoms: _317  and  _320
REMARK  128  A    between atoms: _320  and  _321
REMARK  129  A    between atoms: _326  and  _327
REMARK  130  A    between atoms: _329  and  _331
REMARK  131  A    between atoms: _331  and  _332
REMARK  132  A    between atoms: _331  and  _334
REMARK  133  A    between atoms: _334  and  _335
REMARK  134  A    between atoms: _340  and  _342
REMARK  135  A    between atoms: _342  and  _343
REMARK  136  A    between atoms: _342  and  _345
REMARK  137  A    between atoms: _345  and  _346
REMARK  138  A    between atoms: _349  and  _351
REMARK  139  A    between atoms: _351  and  _352
REMARK  140  A    between atoms: _351  and  _354
REMARK  141  A    between atoms: _354  and  _355
REMARK  142  A    between atoms: _360  and  _362
REMARK  143  A    between atoms: _362  and  _363
REMARK  144  A    between atoms: _362  and  _365
REMARK  145  A    between atoms: _365  and  _366
REMARK  146  A    between atoms: _376  and  _378
REMARK  147  A    between atoms: _378  and  _379
REMARK  148  A    between atoms: _378  and  _381
REMARK  149  A    between atoms: _381  and  _382
REMARK  150  A    between atoms: _388  and  _390
REMARK  151  A    between atoms: _390  and  _391
REMARK  152  A    between atoms: _390  and  _393
REMARK  153  A    between atoms: _393  and  _394
REMARK  154  A    between atoms: _397  and  _399
REMARK  155  A    between atoms: _399  and  _400
REMARK  156  A    between atoms: _399  and  _402
REMARK  157  A    between atoms: _402  and  _403
REMARK  158  A    between atoms: _406  and  _408
REMARK  159  A    between atoms: _408  and  _409
REMARK  160  A    between atoms: _408  and  _411
REMARK  161  A    between atoms: _411  and  _412
REMARK  162  A    between atoms: _412  and  _413
REMARK  163  A    between atoms: _413  and  _414
REMARK  164  A    between atoms: _423  and  _425
REMARK  165  A    between atoms: _425  and  _426
REMARK  166  A    between atoms: _425  and  _428
REMARK  167  A    between atoms: _428  and  _429
REMARK  168  A    between atoms: _434  and  _436
REMARK  169  A    between atoms: _436  and  _437
REMARK  170  A    between atoms: _436  and  _439
REMARK  171  A    between atoms: _439  and  _440
REMARK  172  A    between atoms: _440  and  _441
REMARK  173  A    between atoms: _441  and  _442
REMARK  174  A    between atoms: _451  and  _453
REMARK  175  A    between atoms: _453  and  _454
REMARK  176  A    between atoms: _457  and  _459
REMARK  177  A    between atoms: _459  and  _460
REMARK  178  A    between atoms: _462  and  _464
REMARK  179  A    between atoms: _464  and  _465
REMARK  180  A    between atoms: _464  and  _467
REMARK  181  A    between atoms: _467  and  _468
REMARK  182  A    between atoms: _478  and  _480
REMARK  183  A    between atoms: _480  and  _481
REMARK  184  A    between atoms: _480  and  _483
REMARK  185  A    between atoms: _483  and  _484
REMARK  186  A    between atoms: _485  and  _487
REMARK  187  A    between atoms: _487  and  _488
REMARK  188  A    between atoms: _491  and  _493
REMARK  189  A    between atoms: _493  and  _494
REMARK  190  A    between atoms: _493  and  _496
REMARK  191  A    between atoms: _496  and  _497
REMARK  192  A    between atoms: _500  and  _502
REMARK  193  A    between atoms: _502  and  _503
REMARK  194  A    between atoms: _502  and  _505
REMARK  195  A    between atoms: _505  and  _506
REMARK  196  A    between atoms: _511  and  _512
REMARK  197  A    between atoms: _514  and  _516
REMARK  198  A    between atoms: _516  and  _517
REMARK  199  A    between atoms: _516  and  _519
REMARK  200  A    between atoms: _519  and  _520
REMARK  201  A    between atoms: _522  and  _524
REMARK  202  A    between atoms: _524  and  _525
REMARK  203  A    between atoms: _524  and  _527
REMARK  204  A    between atoms: _527  and  _528
REMARK  205  A    between atoms: _534  and  _536
REMARK  206  A    between atoms: _536  and  _537
REMARK  207  A    between atoms: _536  and  _539
REMARK  208  A    between atoms: _539  and  _540
REMARK  209  A    between atoms: _543  and  _545
REMARK  210  A    between atoms: _545  and  _546
REMARK  211  A    between atoms: _545  and  _548
REMARK  212  A    between atoms: _548  and  _549
REMARK  213  A    between atoms: _551  and  _553
REMARK  214  A    between atoms: _553  and  _554
REMARK  215  A    between atoms: _553  and  _556
REMARK  216  A    between atoms: _556  and  _557
REMARK  217  A    between atoms: _559  and  _561
REMARK  218  A    between atoms: _561  and  _562
REMARK  219  A    between atoms: _561  and  _564
REMARK  220  A    between atoms: _564  and  _565
REMARK  221  A    between atoms: _570  and  _572
REMARK  222  A    between atoms: _572  and  _573
REMARK  223  A    between atoms: _572  and  _575
REMARK  224  A    between atoms: _575  and  _576
REMARK  225  A    between atoms: _581  and  _583
REMARK  226  A    between atoms: _583  and  _584
REMARK  227  A    between atoms: _583  and  _586
REMARK  228  A    between atoms: _586  and  _587
REMARK  229  A    between atoms: _590  and  _592
REMARK  230  A    between atoms: _592  and  _593
REMARK  231  A    between atoms: _596  and  _598
REMARK  232  A    between atoms: _598  and  _599
REMARK  233  A    between atoms: _598  and  _601
REMARK  234  A    between atoms: _601  and  _602
REMARK  235  A    between atoms: _607  and  _608
REMARK  236  A    between atoms: _610  and  _612
REMARK  237  A    between atoms: _612  and  _613
REMARK  238  A    between atoms: _612  and  _615
REMARK  239  A    between atoms: _615  and  _616
REMARK  240  A    between atoms: _621  and  _622
REMARK  241  A    between atoms: _624  and  _626
REMARK  242  A    between atoms: _626  and  _627
REMARK  243  A    between atoms: _626  and  _629
REMARK  244  A    between atoms: _632  and  _634
REMARK  245  A    between atoms: _634  and  _635
REMARK  246  A    between atoms: _634  and  _637
REMARK  247  A    between atoms: _637  and  _638
REMARK  248  A    between atoms: _643  and  _645
REMARK  249  A    between atoms: _645  and  _646
REMARK  250  A    between atoms: _649  and  _651
REMARK  251  A    between atoms: _651  and  _652
REMARK  252  A    between atoms: _651  and  _654
REMARK  253  A    between atoms: _654  and  _655
REMARK  254  A    between atoms: _655  and  _656
REMARK  255  A    between atoms: _656  and  _657
REMARK  256  A    between atoms: _666  and  _668
REMARK  257  A    between atoms: _668  and  _669
REMARK  258  A    between atoms: _668  and  _671
REMARK  259  A    between atoms: _671  and  _672
REMARK  260  A    between atoms: _675  and  _677
REMARK  261  A    between atoms: _677  and  _678
REMARK  262  A    between atoms: _677  and  _680
REMARK  263  A    between atoms: _680  and  _681
REMARK  264  A    between atoms: _684  and  _686
REMARK  265  A    between atoms: _686  and  _687
REMARK  266  A    between atoms: _686  and  _689
REMARK  267  A    between atoms: _689  and  _690
REMARK                            x       y       z     vdW  Elec       q    Type
REMARK                         _______ _______ _______ _____ _____    ______ ____
ROOT
ATOM      1  O   HOH     1       8.311  19.835  24.982  0.00  0.00    +0.000 OA
ENDROOT
TORSDOF 0
REMARK  Name = ../refined-set-2016/2olb/2olb_pocket.pdb
REMARK  267 active torsions:
REMARK  status: ('A' for Active; 'I' for Inactive)
REMARK    1  A    between atoms: _1  and  _3
REMARK    2  A    between atoms: _3  and  _4
REMARK    3  A    between atoms: _3  and  _6
REMARK    4  A    between atoms: _6  and  _7
REMARK    5  A    between atoms: _12  and  _14
REMARK    6  A    between atoms: _14  and  _15
REMARK    7  A    between atoms: _17  and  _19
REMARK    8  A    between atoms: _19  and  _20
REMARK    9  A    between atoms: _19  and  _22
REMARK   10  A    between atoms: _22  and  _23
REMARK   11  A    between atoms: _23  and  _24
REMARK   12  A    between atoms: _29  and  _31
REMARK   13  A    between atoms: _31  and  _32
REMARK   14  A    between atoms: _31  and  _34
REMARK   15  A    between atoms: _34  and  _35
REMARK   16  A    between atoms: _38  and  _40
REMARK   17  A    between atoms: _40  and  _41
REMARK   18  A    between atoms: _40  and  _43
REMARK   19  A    between atoms: _43  and  _44
REMARK   20  A    between atoms: _44  and  _45
REMARK   21  A    between atoms: _48  and  _50
REMARK   22  A    between atoms: _50  and  _51
REMARK   23  A    between atoms: _53  and  _55
REMARK   24  A    between atoms: _55  and  _56
REMARK   25  A    between atoms: _55  and  _58
REMARK   26  A    between atoms: _62  and  _63
REMARK   27  A    between atoms: _68  and  _70
REMARK   28  A    between atoms: _70  and  _71
REMARK   29  A    between atoms: _70  and  _73
REMARK   30  A    between atoms: _73  and  _74
REMARK   31  A    between atoms: _74  and  _75
REMARK   32  A    between atoms: _78  and  _80
REMARK   33  A    between atoms: _80  and  _81
REMARK   34  A    between atoms: _80  and  _83
REMARK   35  A    between atoms: _83  and  _84
REMARK   36  A    between atoms: _86  and  _88
REMARK   37  A    between atoms: _88  and  _89
REMARK   38  A    between atoms: _88  and  _91
REMARK   39  A    between atoms: _91  and  _92
REMARK   40  A    between atoms: _97  and  _99
REMARK   41  A    between atoms: _99  and  _100
REMARK   42  A    between atoms: _99  and  _102
REMARK   43  A    between atoms: _102  and  _103
REMARK   44  A    between atoms: _103  and  _104
REMARK   45  A    between atoms: _104  and  _105
REMARK   46  A    between atoms: _115  and  _116
REMARK   47  A    between atoms: _121  and  _123
REMARK   48  A    between atoms: _123  and  _124
REMARK   49  A    between atoms: _123  and  _126
REMARK   50  A    between atoms: _126  and  _127
REMARK   51  A    between atoms: _132  and  _133
REMARK   52  A    between atoms: _135  and  _137
REMARK   53  A    between atoms: _137  and  _138
REMARK   54  A    between atoms: _137  and  _140
REMARK   55  A    between atoms: _140  and  _141
REMARK   56  A    between atoms: _146  and  _147
REMARK   57  A    between atoms: _149  and  _151
REMARK   58  A    between atoms: _151  and  _152
REMARK   59  A    between atoms: _151  and  _154
REMARK   60  A    between atoms: _157  and  _159
REMARK   61  A    between atoms: _159  and  _160
REMARK   62  A    between atoms: _159  and  _162
REMARK   63  A    between atoms: _162  and  _163
REMARK   64  A    between atoms: _169  and  _170
REMARK   65  A    between atoms: _175  and  _177
REMARK   66  A    between atoms: _177  and  _178
REMARK   67  A    between atoms: _177  and  _180
REMARK   68  A    between atoms: _180  and  _181
REMARK   69  A    between atoms: _183  and  _185
REMARK   70  A    between atoms: _185  and  _186
REMARK   71  A    between atoms: _185  and  _188
REMARK   72  A    between atoms: _188  and  _189
REMARK   73  A    between atoms: _189  and  _190
REMARK   74  A    between atoms: _193  and  _195
REMARK   75  A    between atoms: _195  and  _196
REMARK   76  A    between atoms: _195  and  _198
REMARK   77  A    between atoms: _198  and  _199
REMARK   78  A    between atoms: _204  and  _205
REMARK   79  A    between atoms: _207  and  _209
REMARK   80  A    between atoms: _209  and  _210
REMARK   81  A    between atoms: _209  and  _212
REMARK   82  A    between atoms: _212  and  _213
REMARK   83  A    between atoms: _218  and  _220
REMARK   84  A    between atoms: _220  and  _221
REMARK   85  A    between atoms: _220  and  _223
REMARK   86  A    between atoms: _223  and  _224
REMARK   87  A    between atoms: _229  and  _231
REMARK   88  A    between atoms: _231  and  _232
REMARK   89  A    between atoms: _231  and  _234
REMARK   90  A    between atoms: _234  and  _235
REMARK   91  A    between atoms: _235  and  _236
REMARK   92  A    between atoms: _238  and  _240
REMARK   93  A    between atoms: _240  and  _241
REMARK   94  A    between atoms: _240  and  _243
REMARK   95  A    between atoms: _243  and  _244
REMARK   96  A    between atoms: _249  and  _250
REMARK   97  A    between atoms: _252  and  _254
REMARK   98  A    between atoms: _254  and  _255
REMARK   99  A    between atoms: _254  and  _257
REMARK  100  A    between atoms: _257  and  _258
REMARK  101  A    between atoms: _261  and  _263
REMARK  102  A    between atoms: _263  and  _264
REMARK  103  A    between atoms: _263  and  _266
REMARK  104  A    between atoms: _266  and  _267
REMARK  105  A    between atoms: _267  and  _484
REMARK  106  A    between atoms: _268  and  _270
REMARK  107  A    between atoms: _270  and  _271
REMARK  108  A    between atoms: _270  and  _273
REMARK  109  A    between atoms: _273  and  _274
REMARK  110  A    between atoms: _277  and  _279
REMARK  111  A    between atoms: _279  and  _280
REMARK  112  A    between atoms: _279  and  _282
REMARK  113  A    between atoms: _282  and  _283
REMARK  114  A    between atoms: _288  and  _289
REMARK  115  A    between atoms: _291  and  _293
REMARK  116  A    between atoms: _293  and  _294
REMARK  117  A    between atoms: _293  and  _296
REMARK  118  A    between atoms: _296  and  _297
REMARK  119  A    between atoms: _302  and  _303
REMARK  120  A    between atoms: _305  and  _307
REMARK  121  A    between atoms: _307  and  _308
REMARK  122  A    between atoms: _307  and  _310
REMARK  123  A    between atoms: _310  and  _311
REMARK  124  A    between atoms: _311  and  _312
REMARK  125  A    between atoms: _315  and  _317
REMARK  126  A    between atoms: _317  and  _318
REMARK  127  A    between atoms: _317  and  _320
REMARK  128  A    between atoms: _320  and  _321
REMARK  129  A    between atoms: _326  and  _327
REMARK  130  A    between atoms: _329  and  _331
REMARK  131  A    between atoms: _331  and  _332
REMARK  132  A    between atoms: _331  and  _334
REMARK  133  A    between atoms: _334  and  _335
REMARK  134  A    between atoms: _340  and  _342
REMARK  135  A    between atoms: _342  and  _343
REMARK  136  A    between atoms: _342  and  _345
REMARK  137  A    between atoms: _345  and  _346
REMARK  138  A    between atoms: _349  and  _351
REMARK  139  A    between atoms: _351  and  _352
REMARK  140  A    between atoms: _351  and  _354
REMARK  141  A    between atoms: _354  and  _355
REMARK  142  A    between atoms: _360  and  _362
REMARK  143  A    between atoms: _362  and  _363
REMARK  144  A    between atoms: _362  and  _365
REMARK  145  A    between atoms: _365  and  _366
REMARK  146  A    between atoms: _376  and  _378
REMARK  147  A    between atoms: _378  and  _379
REMARK  148  A    between atoms: _378  and  _381
REMARK  149  A    between atoms: _381  and  _382
REMARK  150  A    between atoms: _388  and  _390
REMARK  151  A    between atoms: _390  and  _391
REMARK  152  A    between atoms: _390  and  _393
REMARK  153  A    between atoms: _393  and  _394
REMARK  154  A    between atoms: _397  and  _399
REMARK  155  A    between atoms: _399  and  _400
REMARK  156  A    between atoms: _399  and  _402
REMARK  157  A    between atoms: _402  and  _403
REMARK  158  A    between atoms: _406  and  _408
REMARK  159  A    between atoms: _408  and  _409
REMARK  160  A    between atoms: _408  and  _411
REMARK  161  A    between atoms: _411  and  _412
REMARK  162  A    between atoms: _412  and  _413
REMARK  163  A    between atoms: _413  and  _414
REMARK  164  A    between atoms: _423  and  _425
REMARK  165  A    between atoms: _425  and  _426
REMARK  166  A    between atoms: _425  and  _428
REMARK  167  A    between atoms: _428  and  _429
REMARK  168  A    between atoms: _434  and  _436
REMARK  169  A    between atoms: _436  and  _437
REMARK  170  A    between atoms: _436  and  _439
REMARK  171  A    between atoms: _439  and  _440
REMARK  172  A    between atoms: _440  and  _441
REMARK  173  A    between atoms: _441  and  _442
REMARK  174  A    between atoms: _451  and  _453
REMARK  175  A    between atoms: _453  and  _454
REMARK  176  A    between atoms: _457  and  _459
REMARK  177  A    between atoms: _459  and  _460
REMARK  178  A    between atoms: _462  and  _464
REMARK  179  A    between atoms: _464  and  _465
REMARK  180  A    between atoms: _464  and  _467
REMARK  181  A    between atoms: _467  and  _468
REMARK  182  A    between atoms: _478  and  _480
REMARK  183  A    between atoms: _480  and  _481
REMARK  184  A    between atoms: _480  and  _483
REMARK  185  A    between atoms: _483  and  _484
REMARK  186  A    between atoms: _485  and  _487
REMARK  187  A    between atoms: _487  and  _488
REMARK  188  A    between atoms: _491  and  _493
REMARK  189  A    between atoms: _493  and  _494
REMARK  190  A    between atoms: _493  and  _496
REMARK  191  A    between atoms: _496  and  _497
REMARK  192  A    between atoms: _500  and  _502
REMARK  193  A    between atoms: _502  and  _503
REMARK  194  A    between atoms: _502  and  _505
REMARK  195  A    between atoms: _505  and  _506
REMARK  196  A    between atoms: _511  and  _512
REMARK  197  A    between atoms: _514  and  _516
REMARK  198  A    between atoms: _516  and  _517
REMARK  199  A    between atoms: _516  and  _519
REMARK  200  A    between atoms: _519  and  _520
REMARK  201  A    between atoms: _522  and  _524
REMARK  202  A    between atoms: _524  and  _525
REMARK  203  A    between atoms: _524  and  _527
REMARK  204  A    between atoms: _527  and  _528
REMARK  205  A    between atoms: _534  and  _536
REMARK  206  A    between atoms: _536  and  _537
REMARK  207  A    between atoms: _536  and  _539
REMARK  208  A    between atoms: _539  and  _540
REMARK  209  A    between atoms: _543  and  _545
REMARK  210  A    between atoms: _545  and  _546
REMARK  211  A    between atoms: _545  and  _548
REMARK  212  A    between atoms: _548  and  _549
REMARK  213  A    between atoms: _551  and  _553
REMARK  214  A    between atoms: _553  and  _554
REMARK  215  A    between atoms: _553  and  _556
REMARK  216  A    between atoms: _556  and  _557
REMARK  217  A    between atoms: _559  and  _561
REMARK  218  A    between atoms: _561  and  _562
REMARK  219  A    between atoms: _561  and  _564
REMARK  220  A    between atoms: _564  and  _565
REMARK  221  A    between atoms: _570  and  _572
REMARK  222  A    between atoms: _572  and  _573
REMARK  223  A    between atoms: _572  and  _575
REMARK  224  A    between atoms: _575  and  _576
REMARK  225  A    between atoms: _581  and  _583
REMARK  226  A    between atoms: _583  and  _584
REMARK  227  A    between atoms: _583  and  _586
REMARK  228  A    between atoms: _586  and  _587
REMARK  229  A    between atoms: _590  and  _592
REMARK  230  A    between atoms: _592  and  _593
REMARK  231  A    between atoms: _596  and  _598
REMARK  232  A    between atoms: _598  and  _599
REMARK  233  A    between atoms: _598  and  _601
REMARK  234  A    between atoms: _601  and  _602
REMARK  235  A    between atoms: _607  and  _608
REMARK  236  A    between atoms: _610  and  _612
REMARK  237  A    between atoms: _612  and  _613
REMARK  238  A    between atoms: _612  and  _615
REMARK  239  A    between atoms: _615  and  _616
REMARK  240  A    between atoms: _621  and  _622
REMARK  241  A    between atoms: _624  and  _626
REMARK  242  A    between atoms: _626  and  _627
REMARK  243  A    between atoms: _626  and  _629
REMARK  244  A    between atoms: _632  and  _634
REMARK  245  A    between atoms: _634  and  _635
REMARK  246  A    between atoms: _634  and  _637
REMARK  247  A    between atoms: _637  and  _638
REMARK  248  A    between atoms: _643  and  _645
REMARK  249  A    between atoms: _645  and  _646
REMARK  250  A    between atoms: _649  and  _651
REMARK  251  A    between atoms: _651  and  _652
REMARK  252  A    between atoms: _651  and  _654
REMARK  253  A    between atoms: _654  and  _655
REMARK  254  A    between atoms: _655  and  _656
REMARK  255  A    between atoms: _656  and  _657
REMARK  256  A    between atoms: _666  and  _668
REMARK  257  A    between atoms: _668  and  _669
REMARK  258  A    between atoms: _668  and  _671
REMARK  259  A    between atoms: _671  and  _672
REMARK  260  A    between atoms: _675  and  _677
REMARK  261  A    between atoms: _677  and  _678
REMARK  262  A    between atoms: _677  and  _680
REMARK  263  A    between atoms: _680  and  _681
REMARK  264  A    between atoms: _684  and  _686
REMARK  265  A    between atoms: _686  and  _687
REMARK  266  A    between atoms: _686  and  _689
REMARK  267  A    between atoms: _689  and  _690
REMARK                            x       y       z     vdW  Elec       q    Type
REMARK                         _______ _______ _______ _____ _____    ______ ____
ROOT
ATOM      1  O   HOH     1       3.618  13.009  11.883  0.00  0.00    +0.000 OA
ENDROOT
TORSDOF 0
REMARK  Name = ../refined-set-2016/2olb/2olb_pocket.pdb
REMARK  267 active torsions:
REMARK  status: ('A' for Active; 'I' for Inactive)
REMARK    1  A    between atoms: _1  and  _3
REMARK    2  A    between atoms: _3  and  _4
REMARK    3  A    between atoms: _3  and  _6
REMARK    4  A    between atoms: _6  and  _7
REMARK    5  A    between atoms: _12  and  _14
REMARK    6  A    between atoms: _14  and  _15
REMARK    7  A    between atoms: _17  and  _19
REMARK    8  A    between atoms: _19  and  _20
REMARK    9  A    between atoms: _19  and  _22
REMARK   10  A    between atoms: _22  and  _23
REMARK   11  A    between atoms: _23  and  _24
REMARK   12  A    between atoms: _29  and  _31
REMARK   13  A    between atoms: _31  and  _32
REMARK   14  A    between atoms: _31  and  _34
REMARK   15  A    between atoms: _34  and  _35
REMARK   16  A    between atoms: _38  and  _40
REMARK   17  A    between atoms: _40  and  _41
REMARK   18  A    between atoms: _40  and  _43
REMARK   19  A    between atoms: _43  and  _44
REMARK   20  A    between atoms: _44  and  _45
REMARK   21  A    between atoms: _48  and  _50
REMARK   22  A    between atoms: _50  and  _51
REMARK   23  A    between atoms: _53  and  _55
REMARK   24  A    between atoms: _55  and  _56
REMARK   25  A    between atoms: _55  and  _58
REMARK   26  A    between atoms: _62  and  _63
REMARK   27  A    between atoms: _68  and  _70
REMARK   28  A    between atoms: _70  and  _71
REMARK   29  A    between atoms: _70  and  _73
REMARK   30  A    between atoms: _73  and  _74
REMARK   31  A    between atoms: _74  and  _75
REMARK   32  A    between atoms: _78  and  _80
REMARK   33  A    between atoms: _80  and  _81
REMARK   34  A    between atoms: _80  and  _83
REMARK   35  A    between atoms: _83  and  _84
REMARK   36  A    between atoms: _86  and  _88
REMARK   37  A    between atoms: _88  and  _89
REMARK   38  A    between atoms: _88  and  _91
REMARK   39  A    between atoms: _91  and  _92
REMARK   40  A    between atoms: _97  and  _99
REMARK   41  A    between atoms: _99  and  _100
REMARK   42  A    between atoms: _99  and  _102
REMARK   43  A    between atoms: _102  and  _103
REMARK   44  A    between atoms: _103  and  _104
REMARK   45  A    between atoms: _104  and  _105
REMARK   46  A    between atoms: _115  and  _116
REMARK   47  A    between atoms: _121  and  _123
REMARK   48  A    between atoms: _123  and  _124
REMARK   49  A    between atoms: _123  and  _126
REMARK   50  A    between atoms: _126  and  _127
REMARK   51  A    between atoms: _132  and  _133
REMARK   52  A    between atoms: _135  and  _137
REMARK   53  A    between atoms: _137  and  _138
REMARK   54  A    between atoms: _137  and  _140
REMARK   55  A    between atoms: _140  and  _141
REMARK   56  A    between atoms: _146  and  _147
REMARK   57  A    between atoms: _149  and  _151
REMARK   58  A    between atoms: _151  and  _152
REMARK   59  A    between atoms: _151  and  _154
REMARK   60  A    between atoms: _157  and  _159
REMARK   61  A    between atoms: _159  and  _160
REMARK   62  A    between atoms: _159  and  _162
REMARK   63  A    between atoms: _162  and  _163
REMARK   64  A    between atoms: _169  and  _170
REMARK   65  A    between atoms: _175  and  _177
REMARK   66  A    between atoms: _177  and  _178
REMARK   67  A    between atoms: _177  and  _180
REMARK   68  A    between atoms: _180  and  _181
REMARK   69  A    between atoms: _183  and  _185
REMARK   70  A    between atoms: _185  and  _186
REMARK   71  A    between atoms: _185  and  _188
REMARK   72  A    between atoms: _188  and  _189
REMARK   73  A    between atoms: _189  and  _190
REMARK   74  A    between atoms: _193  and  _195
REMARK   75  A    between atoms: _195  and  _196
REMARK   76  A    between atoms: _195  and  _198
REMARK   77  A    between atoms: _198  and  _199
REMARK   78  A    between atoms: _204  and  _205
REMARK   79  A    between atoms: _207  and  _209
REMARK   80  A    between atoms: _209  and  _210
REMARK   81  A    between atoms: _209  and  _212
REMARK   82  A    between atoms: _212  and  _213
REMARK   83  A    between atoms: _218  and  _220
REMARK   84  A    between atoms: _220  and  _221
REMARK   85  A    between atoms: _220  and  _223
REMARK   86  A    between atoms: _223  and  _224
REMARK   87  A    between atoms: _229  and  _231
REMARK   88  A    between atoms: _231  and  _232
REMARK   89  A    between atoms: _231  and  _234
REMARK   90  A    between atoms: _234  and  _235
REMARK   91  A    between atoms: _235  and  _236
REMARK   92  A    between atoms: _238  and  _240
REMARK   93  A    between atoms: _240  and  _241
REMARK   94  A    between atoms: _240  and  _243
REMARK   95  A    between atoms: _243  and  _244
REMARK   96  A    between atoms: _249  and  _250
REMARK   97  A    between atoms: _252  and  _254
REMARK   98  A    between atoms: _254  and  _255
REMARK   99  A    between atoms: _254  and  _257
REMARK  100  A    between atoms: _257  and  _258
REMARK  101  A    between atoms: _261  and  _263
REMARK  102  A    between atoms: _263  and  _264
REMARK  103  A    between atoms: _263  and  _266
REMARK  104  A    between atoms: _266  and  _267
REMARK  105  A    between atoms: _267  and  _484
REMARK  106  A    between atoms: _268  and  _270
REMARK  107  A    between atoms: _270  and  _271
REMARK  108  A    between atoms: _270  and  _273
REMARK  109  A    between atoms: _273  and  _274
REMARK  110  A    between atoms: _277  and  _279
REMARK  111  A    between atoms: _279  and  _280
REMARK  112  A    between atoms: _279  and  _282
REMARK  113  A    between atoms: _282  and  _283
REMARK  114  A    between atoms: _288  and  _289
REMARK  115  A    between atoms: _291  and  _293
REMARK  116  A    between atoms: _293  and  _294
REMARK  117  A    between atoms: _293  and  _296
REMARK  118  A    between atoms: _296  and  _297
REMARK  119  A    between atoms: _302  and  _303
REMARK  120  A    between atoms: _305  and  _307
REMARK  121  A    between atoms: _307  and  _308
REMARK  122  A    between atoms: _307  and  _310
REMARK  123  A    between atoms: _310  and  _311
REMARK  124  A    between atoms: _311  and  _312
REMARK  125  A    between atoms: _315  and  _317
REMARK  126  A    between atoms: _317  and  _318
REMARK  127  A    between atoms: _317  and  _320
REMARK  128  A    between atoms: _320  and  _321
REMARK  129  A    between atoms: _326  and  _327
REMARK  130  A    between atoms: _329  and  _331
REMARK  131  A    between atoms: _331  and  _332
REMARK  132  A    between atoms: _331  and  _334
REMARK  133  A    between atoms: _334  and  _335
REMARK  134  A    between atoms: _340  and  _342
REMARK  135  A    between atoms: _342  and  _343
REMARK  136  A    between atoms: _342  and  _345
REMARK  137  A    between atoms: _345  and  _346
REMARK  138  A    between atoms: _349  and  _351
REMARK  139  A    between atoms: _351  and  _352
REMARK  140  A    between atoms: _351  and  _354
REMARK  141  A    between atoms: _354  and  _355
REMARK  142  A    between atoms: _360  and  _362
REMARK  143  A    between atoms: _362  and  _363
REMARK  144  A    between atoms: _362  and  _365
REMARK  145  A    between atoms: _365  and  _366
REMARK  146  A    between atoms: _376  and  _378
REMARK  147  A    between atoms: _378  and  _379
REMARK  148  A    between atoms: _378  and  _381
REMARK  149  A    between atoms: _381  and  _382
REMARK  150  A    between atoms: _388  and  _390
REMARK  151  A    between atoms: _390  and  _391
REMARK  152  A    between atoms: _390  and  _393
REMARK  153  A    between atoms: _393  and  _394
REMARK  154  A    between atoms: _397  and  _399
REMARK  155  A    between atoms: _399  and  _400
REMARK  156  A    between atoms: _399  and  _402
REMARK  157  A    between atoms: _402  and  _403
REMARK  158  A    between atoms: _406  and  _408
REMARK  159  A    between atoms: _408  and  _409
REMARK  160  A    between atoms: _408  and  _411
REMARK  161  A    between atoms: _411  and  _412
REMARK  162  A    between atoms: _412  and  _413
REMARK  163  A    between atoms: _413  and  _414
REMARK  164  A    between atoms: _423  and  _425
REMARK  165  A    between atoms: _425  and  _426
REMARK  166  A    between atoms: _425  and  _428
REMARK  167  A    between atoms: _428  and  _429
REMARK  168  A    between atoms: _434  and  _436
REMARK  169  A    between atoms: _436  and  _437
REMARK  170  A    between atoms: _436  and  _439
REMARK  171  A    between atoms: _439  and  _440
REMARK  172  A    between atoms: _440  and  _441
REMARK  173  A    between atoms: _441  and  _442
REMARK  174  A    between atoms: _451  and  _453
REMARK  175  A    between atoms: _453  and  _454
REMARK  176  A    between atoms: _457  and  _459
REMARK  177  A    between atoms: _459  and  _460
REMARK  178  A    between atoms: _462  and  _464
REMARK  179  A    between atoms: _464  and  _465
REMARK  180  A    between atoms: _464  and  _467
REMARK  181  A    between atoms: _467  and  _468
REMARK  182  A    between atoms: _478  and  _480
REMARK  183  A    between atoms: _480  and  _481
REMARK  184  A    between atoms: _480  and  _483
REMARK  185  A    between atoms: _483  and  _484
REMARK  186  A    between atoms: _485  and  _487
REMARK  187  A    between atoms: _487  and  _488
REMARK  188  A    between atoms: _491  and  _493
REMARK  189  A    between atoms: _493  and  _494
REMARK  190  A    between atoms: _493  and  _496
REMARK  191  A    between atoms: _496  and  _497
REMARK  192  A    between atoms: _500  and  _502
REMARK  193  A    between atoms: _502  and  _503
REMARK  194  A    between atoms: _502  and  _505
REMARK  195  A    between atoms: _505  and  _506
REMARK  196  A    between atoms: _511  and  _512
REMARK  197  A    between atoms: _514  and  _516
REMARK  198  A    between atoms: _516  and  _517
REMARK  199  A    between atoms: _516  and  _519
REMARK  200  A    between atoms: _519  and  _520
REMARK  201  A    between atoms: _522  and  _524
REMARK  202  A    between atoms: _524  and  _525
REMARK  203  A    between atoms: _524  and  _527
REMARK  204  A    between atoms: _527  and  _528
REMARK  205  A    between atoms: _534  and  _536
REMARK  206  A    between atoms: _536  and  _537
REMARK  207  A    between atoms: _536  and  _539
REMARK  208  A    between atoms: _539  and  _540
REMARK  209  A    between atoms: _543  and  _545
REMARK  210  A    between atoms: _545  and  _546
REMARK  211  A    between atoms: _545  and  _548
REMARK  212  A    between atoms: _548  and  _549
REMARK  213  A    between atoms: _551  and  _553
REMARK  214  A    between atoms: _553  and  _554
REMARK  215  A    between atoms: _553  and  _556
REMARK  216  A    between atoms: _556  and  _557
REMARK  217  A    between atoms: _559  and  _561
REMARK  218  A    between atoms: _561  and  _562
REMARK  219  A    between atoms: _561  and  _564
REMARK  220  A    between atoms: _564  and  _565
REMARK  221  A    between atoms: _570  and  _572
REMARK  222  A    between atoms: _572  and  _573
REMARK  223  A    between atoms: _572  and  _575
REMARK  224  A    between atoms: _575  and  _576
REMARK  225  A    between atoms: _581  and  _583
REMARK  226  A    between atoms: _583  and  _584
REMARK  227  A    between atoms: _583  and  _586
REMARK  228  A    between atoms: _586  and  _587
REMARK  229  A    between atoms: _590  and  _592
REMARK  230  A    between atoms: _592  and  _593
REMARK  231  A    between atoms: _596  and  _598
REMARK  232  A    between atoms: _598  and  _599
REMARK  233  A    between atoms: _598  and  _601
REMARK  234  A    between atoms: _601  and  _602
REMARK  235  A    between atoms: _607  and  _608
REMARK  236  A    between atoms: _610  and  _612
REMARK  237  A    between atoms: _612  and  _613
REMARK  238  A    between atoms: _612  and  _615
REMARK  239  A    between atoms: _615  and  _616
REMARK  240  A    between atoms: _621  and  _622
REMARK  241  A    between atoms: _624  and  _626
REMARK  242  A    between atoms: _626  and  _627
REMARK  243  A    between atoms: _626  and  _629
REMARK  244  A    between atoms: _632  and  _634
REMARK  245  A    between atoms: _634  and  _635
REMARK  246  A    between atoms: _634  and  _637
REMARK  247  A    between atoms: _637  and  _638
REMARK  248  A    between atoms: _643  and  _645
REMARK  249  A    between atoms: _645  and  _646
REMARK  250  A    between atoms: _649  and  _651
REMARK  251  A    between atoms: _651  and  _652
REMARK  252  A    between atoms: _651  and  _654
REMARK  253  A    between atoms: _654  and  _655
REMARK  254  A    between atoms: _655  and  _656
REMARK  255  A    between atoms: _656  and  _657
REMARK  256  A    between atoms: _666  and  _668
REMARK  257  A    between atoms: _668  and  _669
REMARK  258  A    between atoms: _668  and  _671
REMARK  259  A    between atoms: _671  and  _672
REMARK  260  A    between atoms: _675  and  _677
REMARK  261  A    between atoms: _677  and  _678
REMARK  262  A    between atoms: _677  and  _680
REMARK  263  A    between atoms: _680  and  _681
REMARK  264  A    between atoms: _684  and  _686
REMARK  265  A    between atoms: _686  and  _687
REMARK  266  A    between atoms: _686  and  _689
REMARK  267  A    between atoms: _689  and  _690
REMARK                            x       y       z     vdW  Elec       q    Type
REMARK                         _______ _______ _______ _____ _____    ______ ____
ROOT
ATOM      1  O   HOH     1      -5.372  16.519  14.063  0.00  0.00    +0.000 OA
ENDROOT
TORSDOF 0
REMARK  Name = ../refined-set-2016/2olb/2olb_pocket.pdb
REMARK  267 active torsions:
REMARK  status: ('A' for Active; 'I' for Inactive)
REMARK    1  A    between atoms: _1  and  _3
REMARK    2  A    between atoms: _3  and  _4
REMARK    3  A    between atoms: _3  and  _6
REMARK    4  A    between atoms: _6  and  _7
REMARK    5  A    between atoms: _12  and  _14
REMARK    6  A    between atoms: _14  and  _15
REMARK    7  A    between atoms: _17  and  _19
REMARK    8  A    between atoms: _19  and  _20
REMARK    9  A    between atoms: _19  and  _22
REMARK   10  A    between atoms: _22  and  _23
REMARK   11  A    between atoms: _23  and  _24
REMARK   12  A    between atoms: _29  and  _31
REMARK   13  A    between atoms: _31  and  _32
REMARK   14  A    between atoms: _31  and  _34
REMARK   15  A    between atoms: _34  and  _35
REMARK   16  A    between atoms: _38  and  _40
REMARK   17  A    between atoms: _40  and  _41
REMARK   18  A    between atoms: _40  and  _43
REMARK   19  A    between atoms: _43  and  _44
REMARK   20  A    between atoms: _44  and  _45
REMARK   21  A    between atoms: _48  and  _50
REMARK   22  A    between atoms: _50  and  _51
REMARK   23  A    between atoms: _53  and  _55
REMARK   24  A    between atoms: _55  and  _56
REMARK   25  A    between atoms: _55  and  _58
REMARK   26  A    between atoms: _62  and  _63
REMARK   27  A    between atoms: _68  and  _70
REMARK   28  A    between atoms: _70  and  _71
REMARK   29  A    between atoms: _70  and  _73
REMARK   30  A    between atoms: _73  and  _74
REMARK   31  A    between atoms: _74  and  _75
REMARK   32  A    between atoms: _78  and  _80
REMARK   33  A    between atoms: _80  and  _81
REMARK   34  A    between atoms: _80  and  _83
REMARK   35  A    between atoms: _83  and  _84
REMARK   36  A    between atoms: _86  and  _88
REMARK   37  A    between atoms: _88  and  _89
REMARK   38  A    between atoms: _88  and  _91
REMARK   39  A    between atoms: _91  and  _92
REMARK   40  A    between atoms: _97  and  _99
REMARK   41  A    between atoms: _99  and  _100
REMARK   42  A    between atoms: _99  and  _102
REMARK   43  A    between atoms: _102  and  _103
REMARK   44  A    between atoms: _103  and  _104
REMARK   45  A    between atoms: _104  and  _105
REMARK   46  A    between atoms: _115  and  _116
REMARK   47  A    between atoms: _121  and  _123
REMARK   48  A    between atoms: _123  and  _124
REMARK   49  A    between atoms: _123  and  _126
REMARK   50  A    between atoms: _126  and  _127
REMARK   51  A    between atoms: _132  and  _133
REMARK   52  A    between atoms: _135  and  _137
REMARK   53  A    between atoms: _137  and  _138
REMARK   54  A    between atoms: _137  and  _140
REMARK   55  A    between atoms: _140  and  _141
REMARK   56  A    between atoms: _146  and  _147
REMARK   57  A    between atoms: _149  and  _151
REMARK   58  A    between atoms: _151  and  _152
REMARK   59  A    between atoms: _151  and  _154
REMARK   60  A    between atoms: _157  and  _159
REMARK   61  A    between atoms: _159  and  _160
REMARK   62  A    between atoms: _159  and  _162
REMARK   63  A    between atoms: _162  and  _163
REMARK   64  A    between atoms: _169  and  _170
REMARK   65  A    between atoms: _175  and  _177
REMARK   66  A    between atoms: _177  and  _178
REMARK   67  A    between atoms: _177  and  _180
REMARK   68  A    between atoms: _180  and  _181
REMARK   69  A    between atoms: _183  and  _185
REMARK   70  A    between atoms: _185  and  _186
REMARK   71  A    between atoms: _185  and  _188
REMARK   72  A    between atoms: _188  and  _189
REMARK   73  A    between atoms: _189  and  _190
REMARK   74  A    between atoms: _193  and  _195
REMARK   75  A    between atoms: _195  and  _196
REMARK   76  A    between atoms: _195  and  _198
REMARK   77  A    between atoms: _198  and  _199
REMARK   78  A    between atoms: _204  and  _205
REMARK   79  A    between atoms: _207  and  _209
REMARK   80  A    between atoms: _209  and  _210
REMARK   81  A    between atoms: _209  and  _212
REMARK   82  A    between atoms: _212  and  _213
REMARK   83  A    between atoms: _218  and  _220
REMARK   84  A    between atoms: _220  and  _221
REMARK   85  A    between atoms: _220  and  _223
REMARK   86  A    between atoms: _223  and  _224
REMARK   87  A    between atoms: _229  and  _231
REMARK   88  A    between atoms: _231  and  _232
REMARK   89  A    between atoms: _231  and  _234
REMARK   90  A    between atoms: _234  and  _235
REMARK   91  A    between atoms: _235  and  _236
REMARK   92  A    between atoms: _238  and  _240
REMARK   93  A    between atoms: _240  and  _241
REMARK   94  A    between atoms: _240  and  _243
REMARK   95  A    between atoms: _243  and  _244
REMARK   96  A    between atoms: _249  and  _250
REMARK   97  A    between atoms: _252  and  _254
REMARK   98  A    between atoms: _254  and  _255
REMARK   99  A    between atoms: _254  and  _257
REMARK  100  A    between atoms: _257  and  _258
REMARK  101  A    between atoms: _261  and  _263
REMARK  102  A    between atoms: _263  and  _264
REMARK  103  A    between atoms: _263  and  _266
REMARK  104  A    between atoms: _266  and  _267
REMARK  105  A    between atoms: _267  and  _484
REMARK  106  A    between atoms: _268  and  _270
REMARK  107  A    between atoms: _270  and  _271
REMARK  108  A    between atoms: _270  and  _273
REMARK  109  A    between atoms: _273  and  _274
REMARK  110  A    between atoms: _277  and  _279
REMARK  111  A    between atoms: _279  and  _280
REMARK  112  A    between atoms: _279  and  _282
REMARK  113  A    between atoms: _282  and  _283
REMARK  114  A    between atoms: _288  and  _289
REMARK  115  A    between atoms: _291  and  _293
REMARK  116  A    between atoms: _293  and  _294
REMARK  117  A    between atoms: _293  and  _296
REMARK  118  A    between atoms: _296  and  _297
REMARK  119  A    between atoms: _302  and  _303
REMARK  120  A    between atoms: _305  and  _307
REMARK  121  A    between atoms: _307  and  _308
REMARK  122  A    between atoms: _307  and  _310
REMARK  123  A    between atoms: _310  and  _311
REMARK  124  A    between atoms: _311  and  _312
REMARK  125  A    between atoms: _315  and  _317
REMARK  126  A    between atoms: _317  and  _318
REMARK  127  A    between atoms: _317  and  _320
REMARK  128  A    between atoms: _320  and  _321
REMARK  129  A    between atoms: _326  and  _327
REMARK  130  A    between atoms: _329  and  _331
REMARK  131  A    between atoms: _331  and  _332
REMARK  132  A    between atoms: _331  and  _334
REMARK  133  A    between atoms: _334  and  _335
REMARK  134  A    between atoms: _340  and  _342
REMARK  135  A    between atoms: _342  and  _343
REMARK  136  A    between atoms: _342  and  _345
REMARK  137  A    between atoms: _345  and  _346
REMARK  138  A    between atoms: _349  and  _351
REMARK  139  A    between atoms: _351  and  _352
REMARK  140  A    between atoms: _351  and  _354
REMARK  141  A    between atoms: _354  and  _355
REMARK  142  A    between atoms: _360  and  _362
REMARK  143  A    between atoms: _362  and  _363
REMARK  144  A    between atoms: _362  and  _365
REMARK  145  A    between atoms: _365  and  _366
REMARK  146  A    between atoms: _376  and  _378
REMARK  147  A    between atoms: _378  and  _379
REMARK  148  A    between atoms: _378  and  _381
REMARK  149  A    between atoms: _381  and  _382
REMARK  150  A    between atoms: _388  and  _390
REMARK  151  A    between atoms: _390  and  _391
REMARK  152  A    between atoms: _390  and  _393
REMARK  153  A    between atoms: _393  and  _394
REMARK  154  A    between atoms: _397  and  _399
REMARK  155  A    between atoms: _399  and  _400
REMARK  156  A    between atoms: _399  and  _402
REMARK  157  A    between atoms: _402  and  _403
REMARK  158  A    between atoms: _406  and  _408
REMARK  159  A    between atoms: _408  and  _409
REMARK  160  A    between atoms: _408  and  _411
REMARK  161  A    between atoms: _411  and  _412
REMARK  162  A    between atoms: _412  and  _413
REMARK  163  A    between atoms: _413  and  _414
REMARK  164  A    between atoms: _423  and  _425
REMARK  165  A    between atoms: _425  and  _426
REMARK  166  A    between atoms: _425  and  _428
REMARK  167  A    between atoms: _428  and  _429
REMARK  168  A    between atoms: _434  and  _436
REMARK  169  A    between atoms: _436  and  _437
REMARK  170  A    between atoms: _436  and  _439
REMARK  171  A    between atoms: _439  and  _440
REMARK  172  A    between atoms: _440  and  _441
REMARK  173  A    between atoms: _441  and  _442
REMARK  174  A    between atoms: _451  and  _453
REMARK  175  A    between atoms: _453  and  _454
REMARK  176  A    between atoms: _457  and  _459
REMARK  177  A    between atoms: _459  and  _460
REMARK  178  A    between atoms: _462  and  _464
REMARK  179  A    between atoms: _464  and  _465
REMARK  180  A    between atoms: _464  and  _467
REMARK  181  A    between atoms: _467  and  _468
REMARK  182  A    between atoms: _478  and  _480
REMARK  183  A    between atoms: _480  and  _481
REMARK  184  A    between atoms: _480  and  _483
REMARK  185  A    between atoms: _483  and  _484
REMARK  186  A    between atoms: _485  and  _487
REMARK  187  A    between atoms: _487  and  _488
REMARK  188  A    between atoms: _491  and  _493
REMARK  189  A    between atoms: _493  and  _494
REMARK  190  A    between atoms: _493  and  _496
REMARK  191  A    between atoms: _496  and  _497
REMARK  192  A    between atoms: _500  and  _502
REMARK  193  A    between atoms: _502  and  _503
REMARK  194  A    between atoms: _502  and  _505
REMARK  195  A    between atoms: _505  and  _506
REMARK  196  A    between atoms: _511  and  _512
REMARK  197  A    between atoms: _514  and  _516
REMARK  198  A    between atoms: _516  and  _517
REMARK  199  A    between atoms: _516  and  _519
REMARK  200  A    between atoms: _519  and  _520
REMARK  201  A    between atoms: _522  and  _524
REMARK  202  A    between atoms: _524  and  _525
REMARK  203  A    between atoms: _524  and  _527
REMARK  204  A    between atoms: _527  and  _528
REMARK  205  A    between atoms: _534  and  _536
REMARK  206  A    between atoms: _536  and  _537
REMARK  207  A    between atoms: _536  and  _539
REMARK  208  A    between atoms: _539  and  _540
REMARK  209  A    between atoms: _543  and  _545
REMARK  210  A    between atoms: _545  and  _546
REMARK  211  A    between atoms: _545  and  _548
REMARK  212  A    between atoms: _548  and  _549
REMARK  213  A    between atoms: _551  and  _553
REMARK  214  A    between atoms: _553  and  _554
REMARK  215  A    between atoms: _553  and  _556
REMARK  216  A    between atoms: _556  and  _557
REMARK  217  A    between atoms: _559  and  _561
REMARK  218  A    between atoms: _561  and  _562
REMARK  219  A    between atoms: _561  and  _564
REMARK  220  A    between atoms: _564  and  _565
REMARK  221  A    between atoms: _570  and  _572
REMARK  222  A    between atoms: _572  and  _573
REMARK  223  A    between atoms: _572  and  _575
REMARK  224  A    between atoms: _575  and  _576
REMARK  225  A    between atoms: _581  and  _583
REMARK  226  A    between atoms: _583  and  _584
REMARK  227  A    between atoms: _583  and  _586
REMARK  228  A    between atoms: _586  and  _587
REMARK  229  A    between atoms: _590  and  _592
REMARK  230  A    between atoms: _592  and  _593
REMARK  231  A    between atoms: _596  and  _598
REMARK  232  A    between atoms: _598  and  _599
REMARK  233  A    between atoms: _598  and  _601
REMARK  234  A    between atoms: _601  and  _602
REMARK  235  A    between atoms: _607  and  _608
REMARK  236  A    between atoms: _610  and  _612
REMARK  237  A    between atoms: _612  and  _613
REMARK  238  A    between atoms: _612  and  _615
REMARK  239  A    between atoms: _615  and  _616
REMARK  240  A    between atoms: _621  and  _622
REMARK  241  A    between atoms: _624  and  _626
REMARK  242  A    between atoms: _626  and  _627
REMARK  243  A    between atoms: _626  and  _629
REMARK  244  A    between atoms: _632  and  _634
REMARK  245  A    between atoms: _634  and  _635
REMARK  246  A    between atoms: _634  and  _637
REMARK  247  A    between atoms: _637  and  _638
REMARK  248  A    between atoms: _643  and  _645
REMARK  249  A    between atoms: _645  and  _646
REMARK  250  A    between atoms: _649  and  _651
REMARK  251  A    between atoms: _651  and  _652
REMARK  252  A    between atoms: _651  and  _654
REMARK  253  A    between atoms: _654  and  _655
REMARK  254  A    between atoms: _655  and  _656
REMARK  255  A    between atoms: _656  and  _657
REMARK  256  A    between atoms: _666  and  _668
REMARK  257  A    between atoms: _668  and  _669
REMARK  258  A    between atoms: _668  and  _671
REMARK  259  A    between atoms: _671  and  _672
REMARK  260  A    between atoms: _675  and  _677
REMARK  261  A    between atoms: _677  and  _678
REMARK  262  A    between atoms: _677  and  _680
REMARK  263  A    between atoms: _680  and  _681
REMARK  264  A    between atoms: _684  and  _686
REMARK  265  A    between atoms: _686  and  _687
REMARK  266  A    between atoms: _686  and  _689
REMARK  267  A    between atoms: _689  and  _690
REMARK                            x       y       z     vdW  Elec       q    Type
REMARK                         _______ _______ _______ _____ _____    ______ ____
ROOT
ATOM      1  O   HOH     1       5.862  20.216  24.465  0.00  0.00    +0.000 OA
ENDROOT
TORSDOF 0
REMARK  Name = ../refined-set-2016/2olb/2olb_pocket.pdb
REMARK  267 active torsions:
REMARK  status: ('A' for Active; 'I' for Inactive)
REMARK    1  A    between atoms: _1  and  _3
REMARK    2  A    between atoms: _3  and  _4
REMARK    3  A    between atoms: _3  and  _6
REMARK    4  A    between atoms: _6  and  _7
REMARK    5  A    between atoms: _12  and  _14
REMARK    6  A    between atoms: _14  and  _15
REMARK    7  A    between atoms: _17  and  _19
REMARK    8  A    between atoms: _19  and  _20
REMARK    9  A    between atoms: _19  and  _22
REMARK   10  A    between atoms: _22  and  _23
REMARK   11  A    between atoms: _23  and  _24
REMARK   12  A    between atoms: _29  and  _31
REMARK   13  A    between atoms: _31  and  _32
REMARK   14  A    between atoms: _31  and  _34
REMARK   15  A    between atoms: _34  and  _35
REMARK   16  A    between atoms: _38  and  _40
REMARK   17  A    between atoms: _40  and  _41
REMARK   18  A    between atoms: _40  and  _43
REMARK   19  A    between atoms: _43  and  _44
REMARK   20  A    between atoms: _44  and  _45
REMARK   21  A    between atoms: _48  and  _50
REMARK   22  A    between atoms: _50  and  _51
REMARK   23  A    between atoms: _53  and  _55
REMARK   24  A    between atoms: _55  and  _56
REMARK   25  A    between atoms: _55  and  _58
REMARK   26  A    between atoms: _62  and  _63
REMARK   27  A    between atoms: _68  and  _70
REMARK   28  A    between atoms: _70  and  _71
REMARK   29  A    between atoms: _70  and  _73
REMARK   30  A    between atoms: _73  and  _74
REMARK   31  A    between atoms: _74  and  _75
REMARK   32  A    between atoms: _78  and  _80
REMARK   33  A    between atoms: _80  and  _81
REMARK   34  A    between atoms: _80  and  _83
REMARK   35  A    between atoms: _83  and  _84
REMARK   36  A    between atoms: _86  and  _88
REMARK   37  A    between atoms: _88  and  _89
REMARK   38  A    between atoms: _88  and  _91
REMARK   39  A    between atoms: _91  and  _92
REMARK   40  A    between atoms: _97  and  _99
REMARK   41  A    between atoms: _99  and  _100
REMARK   42  A    between atoms: _99  and  _102
REMARK   43  A    between atoms: _102  and  _103
REMARK   44  A    between atoms: _103  and  _104
REMARK   45  A    between atoms: _104  and  _105
REMARK   46  A    between atoms: _115  and  _116
REMARK   47  A    between atoms: _121  and  _123
REMARK   48  A    between atoms: _123  and  _124
REMARK   49  A    between atoms: _123  and  _126
REMARK   50  A    between atoms: _126  and  _127
REMARK   51  A    between atoms: _132  and  _133
REMARK   52  A    between atoms: _135  and  _137
REMARK   53  A    between atoms: _137  and  _138
REMARK   54  A    between atoms: _137  and  _140
REMARK   55  A    between atoms: _140  and  _141
REMARK   56  A    between atoms: _146  and  _147
REMARK   57  A    between atoms: _149  and  _151
REMARK   58  A    between atoms: _151  and  _152
REMARK   59  A    between atoms: _151  and  _154
REMARK   60  A    between atoms: _157  and  _159
REMARK   61  A    between atoms: _159  and  _160
REMARK   62  A    between atoms: _159  and  _162
REMARK   63  A    between atoms: _162  and  _163
REMARK   64  A    between atoms: _169  and  _170
REMARK   65  A    between atoms: _175  and  _177
REMARK   66  A    between atoms: _177  and  _178
REMARK   67  A    between atoms: _177  and  _180
REMARK   68  A    between atoms: _180  and  _181
REMARK   69  A    between atoms: _183  and  _185
REMARK   70  A    between atoms: _185  and  _186
REMARK   71  A    between atoms: _185  and  _188
REMARK   72  A    between atoms: _188  and  _189
REMARK   73  A    between atoms: _189  and  _190
REMARK   74  A    between atoms: _193  and  _195
REMARK   75  A    between atoms: _195  and  _196
REMARK   76  A    between atoms: _195  and  _198
REMARK   77  A    between atoms: _198  and  _199
REMARK   78  A    between atoms: _204  and  _205
REMARK   79  A    between atoms: _207  and  _209
REMARK   80  A    between atoms: _209  and  _210
REMARK   81  A    between atoms: _209  and  _212
REMARK   82  A    between atoms: _212  and  _213
REMARK   83  A    between atoms: _218  and  _220
REMARK   84  A    between atoms: _220  and  _221
REMARK   85  A    between atoms: _220  and  _223
REMARK   86  A    between atoms: _223  and  _224
REMARK   87  A    between atoms: _229  and  _231
REMARK   88  A    between atoms: _231  and  _232
REMARK   89  A    between atoms: _231  and  _234
REMARK   90  A    between atoms: _234  and  _235
REMARK   91  A    between atoms: _235  and  _236
REMARK   92  A    between atoms: _238  and  _240
REMARK   93  A    between atoms: _240  and  _241
REMARK   94  A    between atoms: _240  and  _243
REMARK   95  A    between atoms: _243  and  _244
REMARK   96  A    between atoms: _249  and  _250
REMARK   97  A    between atoms: _252  and  _254
REMARK   98  A    between atoms: _254  and  _255
REMARK   99  A    between atoms: _254  and  _257
REMARK  100  A    between atoms: _257  and  _258
REMARK  101  A    between atoms: _261  and  _263
REMARK  102  A    between atoms: _263  and  _264
REMARK  103  A    between atoms: _263  and  _266
REMARK  104  A    between atoms: _266  and  _267
REMARK  105  A    between atoms: _267  and  _484
REMARK  106  A    between atoms: _268  and  _270
REMARK  107  A    between atoms: _270  and  _271
REMARK  108  A    between atoms: _270  and  _273
REMARK  109  A    between atoms: _273  and  _274
REMARK  110  A    between atoms: _277  and  _279
REMARK  111  A    between atoms: _279  and  _280
REMARK  112  A    between atoms: _279  and  _282
REMARK  113  A    between atoms: _282  and  _283
REMARK  114  A    between atoms: _288  and  _289
REMARK  115  A    between atoms: _291  and  _293
REMARK  116  A    between atoms: _293  and  _294
REMARK  117  A    between atoms: _293  and  _296
REMARK  118  A    between atoms: _296  and  _297
REMARK  119  A    between atoms: _302  and  _303
REMARK  120  A    between atoms: _305  and  _307
REMARK  121  A    between atoms: _307  and  _308
REMARK  122  A    between atoms: _307  and  _310
REMARK  123  A    between atoms: _310  and  _311
REMARK  124  A    between atoms: _311  and  _312
REMARK  125  A    between atoms: _315  and  _317
REMARK  126  A    between atoms: _317  and  _318
REMARK  127  A    between atoms: _317  and  _320
REMARK  128  A    between atoms: _320  and  _321
REMARK  129  A    between atoms: _326  and  _327
REMARK  130  A    between atoms: _329  and  _331
REMARK  131  A    between atoms: _331  and  _332
REMARK  132  A    between atoms: _331  and  _334
REMARK  133  A    between atoms: _334  and  _335
REMARK  134  A    between atoms: _340  and  _342
REMARK  135  A    between atoms: _342  and  _343
REMARK  136  A    between atoms: _342  and  _345
REMARK  137  A    between atoms: _345  and  _346
REMARK  138  A    between atoms: _349  and  _351
REMARK  139  A    between atoms: _351  and  _352
REMARK  140  A    between atoms: _351  and  _354
REMARK  141  A    between atoms: _354  and  _355
REMARK  142  A    between atoms: _360  and  _362
REMARK  143  A    between atoms: _362  and  _363
REMARK  144  A    between atoms: _362  and  _365
REMARK  145  A    between atoms: _365  and  _366
REMARK  146  A    between atoms: _376  and  _378
REMARK  147  A    between atoms: _378  and  _379
REMARK  148  A    between atoms: _378  and  _381
REMARK  149  A    between atoms: _381  and  _382
REMARK  150  A    between atoms: _388  and  _390
REMARK  151  A    between atoms: _390  and  _391
REMARK  152  A    between atoms: _390  and  _393
REMARK  153  A    between atoms: _393  and  _394
REMARK  154  A    between atoms: _397  and  _399
REMARK  155  A    between atoms: _399  and  _400
REMARK  156  A    between atoms: _399  and  _402
REMARK  157  A    between atoms: _402  and  _403
REMARK  158  A    between atoms: _406  and  _408
REMARK  159  A    between atoms: _408  and  _409
REMARK  160  A    between atoms: _408  and  _411
REMARK  161  A    between atoms: _411  and  _412
REMARK  162  A    between atoms: _412  and  _413
REMARK  163  A    between atoms: _413  and  _414
REMARK  164  A    between atoms: _423  and  _425
REMARK  165  A    between atoms: _425  and  _426
REMARK  166  A    between atoms: _425  and  _428
REMARK  167  A    between atoms: _428  and  _429
REMARK  168  A    between atoms: _434  and  _436
REMARK  169  A    between atoms: _436  and  _437
REMARK  170  A    between atoms: _436  and  _439
REMARK  171  A    between atoms: _439  and  _440
REMARK  172  A    between atoms: _440  and  _441
REMARK  173  A    between atoms: _441  and  _442
REMARK  174  A    between atoms: _451  and  _453
REMARK  175  A    between atoms: _453  and  _454
REMARK  176  A    between atoms: _457  and  _459
REMARK  177  A    between atoms: _459  and  _460
REMARK  178  A    between atoms: _462  and  _464
REMARK  179  A    between atoms: _464  and  _465
REMARK  180  A    between atoms: _464  and  _467
REMARK  181  A    between atoms: _467  and  _468
REMARK  182  A    between atoms: _478  and  _480
REMARK  183  A    between atoms: _480  and  _481
REMARK  184  A    between atoms: _480  and  _483
REMARK  185  A    between atoms: _483  and  _484
REMARK  186  A    between atoms: _485  and  _487
REMARK  187  A    between atoms: _487  and  _488
REMARK  188  A    between atoms: _491  and  _493
REMARK  189  A    between atoms: _493  and  _494
REMARK  190  A    between atoms: _493  and  _496
REMARK  191  A    between atoms: _496  and  _497
REMARK  192  A    between atoms: _500  and  _502
REMARK  193  A    between atoms: _502  and  _503
REMARK  194  A    between atoms: _502  and  _505
REMARK  195  A    between atoms: _505  and  _506
REMARK  196  A    between atoms: _511  and  _512
REMARK  197  A    between atoms: _514  and  _516
REMARK  198  A    between atoms: _516  and  _517
REMARK  199  A    between atoms: _516  and  _519
REMARK  200  A    between atoms: _519  and  _520
REMARK  201  A    between atoms: _522  and  _524
REMARK  202  A    between atoms: _524  and  _525
REMARK  203  A    between atoms: _524  and  _527
REMARK  204  A    between atoms: _527  and  _528
REMARK  205  A    between atoms: _534  and  _536
REMARK  206  A    between atoms: _536  and  _537
REMARK  207  A    between atoms: _536  and  _539
REMARK  208  A    between atoms: _539  and  _540
REMARK  209  A    between atoms: _543  and  _545
REMARK  210  A    between atoms: _545  and  _546
REMARK  211  A    between atoms: _545  and  _548
REMARK  212  A    between atoms: _548  and  _549
REMARK  213  A    between atoms: _551  and  _553
REMARK  214  A    between atoms: _553  and  _554
REMARK  215  A    between atoms: _553  and  _556
REMARK  216  A    between atoms: _556  and  _557
REMARK  217  A    between atoms: _559  and  _561
REMARK  218  A    between atoms: _561  and  _562
REMARK  219  A    between atoms: _561  and  _564
REMARK  220  A    between atoms: _564  and  _565
REMARK  221  A    between atoms: _570  and  _572
REMARK  222  A    between atoms: _572  and  _573
REMARK  223  A    between atoms: _572  and  _575
REMARK  224  A    between atoms: _575  and  _576
REMARK  225  A    between atoms: _581  and  _583
REMARK  226  A    between atoms: _583  and  _584
REMARK  227  A    between atoms: _583  and  _586
REMARK  228  A    between atoms: _586  and  _587
REMARK  229  A    between atoms: _590  and  _592
REMARK  230  A    between atoms: _592  and  _593
REMARK  231  A    between atoms: _596  and  _598
REMARK  232  A    between atoms: _598  and  _599
REMARK  233  A    between atoms: _598  and  _601
REMARK  234  A    between atoms: _601  and  _602
REMARK  235  A    between atoms: _607  and  _608
REMARK  236  A    between atoms: _610  and  _612
REMARK  237  A    between atoms: _612  and  _613
REMARK  238  A    between atoms: _612  and  _615
REMARK  239  A    between atoms: _615  and  _616
REMARK  240  A    between atoms: _621  and  _622
REMARK  241  A    between atoms: _624  and  _626
REMARK  242  A    between atoms: _626  and  _627
REMARK  243  A    between atoms: _626  and  _629
REMARK  244  A    between atoms: _632  and  _634
REMARK  245  A    between atoms: _634  and  _635
REMARK  246  A    between atoms: _634  and  _637
REMARK  247  A    between atoms: _637  and  _638
REMARK  248  A    between atoms: _643  and  _645
REMARK  249  A    between atoms: _645  and  _646
REMARK  250  A    between atoms: _649  and  _651
REMARK  251  A    between atoms: _651  and  _652
REMARK  252  A    between atoms: _651  and  _654
REMARK  253  A    between atoms: _654  and  _655
REMARK  254  A    between atoms: _655  and  _656
REMARK  255  A    between atoms: _656  and  _657
REMARK  256  A    between atoms: _666  and  _668
REMARK  257  A    between atoms: _668  and  _669
REMARK  258  A    between atoms: _668  and  _671
REMARK  259  A    between atoms: _671  and  _672
REMARK  260  A    between atoms: _675  and  _677
REMARK  261  A    between atoms: _677  and  _678
REMARK  262  A    between atoms: _677  and  _680
REMARK  263  A    between atoms: _680  and  _681
REMARK  264  A    between atoms: _684  and  _686
REMARK  265  A    between atoms: _686  and  _687
REMARK  266  A    between atoms: _686  and  _689
REMARK  267  A    between atoms: _689  and  _690
REMARK                            x       y       z     vdW  Elec       q    Type
REMARK                         _______ _______ _______ _____ _____    ______ ____
ROOT
ATOM      1  O   HOH     1      -0.887  15.353   8.483  0.00  0.00    +0.000 OA
ENDROOT
TORSDOF 0
REMARK  Name = ../refined-set-2016/2olb/2olb_pocket.pdb
REMARK  267 active torsions:
REMARK  status: ('A' for Active; 'I' for Inactive)
REMARK    1  A    between atoms: _1  and  _3
REMARK    2  A    between atoms: _3  and  _4
REMARK    3  A    between atoms: _3  and  _6
REMARK    4  A    between atoms: _6  and  _7
REMARK    5  A    between atoms: _12  and  _14
REMARK    6  A    between atoms: _14  and  _15
REMARK    7  A    between atoms: _17  and  _19
REMARK    8  A    between atoms: _19  and  _20
REMARK    9  A    between atoms: _19  and  _22
REMARK   10  A    between atoms: _22  and  _23
REMARK   11  A    between atoms: _23  and  _24
REMARK   12  A    between atoms: _29  and  _31
REMARK   13  A    between atoms: _31  and  _32
REMARK   14  A    between atoms: _31  and  _34
REMARK   15  A    between atoms: _34  and  _35
REMARK   16  A    between atoms: _38  and  _40
REMARK   17  A    between atoms: _40  and  _41
REMARK   18  A    between atoms: _40  and  _43
REMARK   19  A    between atoms: _43  and  _44
REMARK   20  A    between atoms: _44  and  _45
REMARK   21  A    between atoms: _48  and  _50
REMARK   22  A    between atoms: _50  and  _51
REMARK   23  A    between atoms: _53  and  _55
REMARK   24  A    between atoms: _55  and  _56
REMARK   25  A    between atoms: _55  and  _58
REMARK   26  A    between atoms: _62  and  _63
REMARK   27  A    between atoms: _68  and  _70
REMARK   28  A    between atoms: _70  and  _71
REMARK   29  A    between atoms: _70  and  _73
REMARK   30  A    between atoms: _73  and  _74
REMARK   31  A    between atoms: _74  and  _75
REMARK   32  A    between atoms: _78  and  _80
REMARK   33  A    between atoms: _80  and  _81
REMARK   34  A    between atoms: _80  and  _83
REMARK   35  A    between atoms: _83  and  _84
REMARK   36  A    between atoms: _86  and  _88
REMARK   37  A    between atoms: _88  and  _89
REMARK   38  A    between atoms: _88  and  _91
REMARK   39  A    between atoms: _91  and  _92
REMARK   40  A    between atoms: _97  and  _99
REMARK   41  A    between atoms: _99  and  _100
REMARK   42  A    between atoms: _99  and  _102
REMARK   43  A    between atoms: _102  and  _103
REMARK   44  A    between atoms: _103  and  _104
REMARK   45  A    between atoms: _104  and  _105
REMARK   46  A    between atoms: _115  and  _116
REMARK   47  A    between atoms: _121  and  _123
REMARK   48  A    between atoms: _123  and  _124
REMARK   49  A    between atoms: _123  and  _126
REMARK   50  A    between atoms: _126  and  _127
REMARK   51  A    between atoms: _132  and  _133
REMARK   52  A    between atoms: _135  and  _137
REMARK   53  A    between atoms: _137  and  _138
REMARK   54  A    between atoms: _137  and  _140
REMARK   55  A    between atoms: _140  and  _141
REMARK   56  A    between atoms: _146  and  _147
REMARK   57  A    between atoms: _149  and  _151
REMARK   58  A    between atoms: _151  and  _152
REMARK   59  A    between atoms: _151  and  _154
REMARK   60  A    between atoms: _157  and  _159
REMARK   61  A    between atoms: _159  and  _160
REMARK   62  A    between atoms: _159  and  _162
REMARK   63  A    between atoms: _162  and  _163
REMARK   64  A    between atoms: _169  and  _170
REMARK   65  A    between atoms: _175  and  _177
REMARK   66  A    between atoms: _177  and  _178
REMARK   67  A    between atoms: _177  and  _180
REMARK   68  A    between atoms: _180  and  _181
REMARK   69  A    between atoms: _183  and  _185
REMARK   70  A    between atoms: _185  and  _186
REMARK   71  A    between atoms: _185  and  _188
REMARK   72  A    between atoms: _188  and  _189
REMARK   73  A    between atoms: _189  and  _190
REMARK   74  A    between atoms: _193  and  _195
REMARK   75  A    between atoms: _195  and  _196
REMARK   76  A    between atoms: _195  and  _198
REMARK   77  A    between atoms: _198  and  _199
REMARK   78  A    between atoms: _204  and  _205
REMARK   79  A    between atoms: _207  and  _209
REMARK   80  A    between atoms: _209  and  _210
REMARK   81  A    between atoms: _209  and  _212
REMARK   82  A    between atoms: _212  and  _213
REMARK   83  A    between atoms: _218  and  _220
REMARK   84  A    between atoms: _220  and  _221
REMARK   85  A    between atoms: _220  and  _223
REMARK   86  A    between atoms: _223  and  _224
REMARK   87  A    between atoms: _229  and  _231
REMARK   88  A    between atoms: _231  and  _232
REMARK   89  A    between atoms: _231  and  _234
REMARK   90  A    between atoms: _234  and  _235
REMARK   91  A    between atoms: _235  and  _236
REMARK   92  A    between atoms: _238  and  _240
REMARK   93  A    between atoms: _240  and  _241
REMARK   94  A    between atoms: _240  and  _243
REMARK   95  A    between atoms: _243  and  _244
REMARK   96  A    between atoms: _249  and  _250
REMARK   97  A    between atoms: _252  and  _254
REMARK   98  A    between atoms: _254  and  _255
REMARK   99  A    between atoms: _254  and  _257
REMARK  100  A    between atoms: _257  and  _258
REMARK  101  A    between atoms: _261  and  _263
REMARK  102  A    between atoms: _263  and  _264
REMARK  103  A    between atoms: _263  and  _266
REMARK  104  A    between atoms: _266  and  _267
REMARK  105  A    between atoms: _267  and  _484
REMARK  106  A    between atoms: _268  and  _270
REMARK  107  A    between atoms: _270  and  _271
REMARK  108  A    between atoms: _270  and  _273
REMARK  109  A    between atoms: _273  and  _274
REMARK  110  A    between atoms: _277  and  _279
REMARK  111  A    between atoms: _279  and  _280
REMARK  112  A    between atoms: _279  and  _282
REMARK  113  A    between atoms: _282  and  _283
REMARK  114  A    between atoms: _288  and  _289
REMARK  115  A    between atoms: _291  and  _293
REMARK  116  A    between atoms: _293  and  _294
REMARK  117  A    between atoms: _293  and  _296
REMARK  118  A    between atoms: _296  and  _297
REMARK  119  A    between atoms: _302  and  _303
REMARK  120  A    between atoms: _305  and  _307
REMARK  121  A    between atoms: _307  and  _308
REMARK  122  A    between atoms: _307  and  _310
REMARK  123  A    between atoms: _310  and  _311
REMARK  124  A    between atoms: _311  and  _312
REMARK  125  A    between atoms: _315  and  _317
REMARK  126  A    between atoms: _317  and  _318
REMARK  127  A    between atoms: _317  and  _320
REMARK  128  A    between atoms: _320  and  _321
REMARK  129  A    between atoms: _326  and  _327
REMARK  130  A    between atoms: _329  and  _331
REMARK  131  A    between atoms: _331  and  _332
REMARK  132  A    between atoms: _331  and  _334
REMARK  133  A    between atoms: _334  and  _335
REMARK  134  A    between atoms: _340  and  _342
REMARK  135  A    between atoms: _342  and  _343
REMARK  136  A    between atoms: _342  and  _345
REMARK  137  A    between atoms: _345  and  _346
REMARK  138  A    between atoms: _349  and  _351
REMARK  139  A    between atoms: _351  and  _352
REMARK  140  A    between atoms: _351  and  _354
REMARK  141  A    between atoms: _354  and  _355
REMARK  142  A    between atoms: _360  and  _362
REMARK  143  A    between atoms: _362  and  _363
REMARK  144  A    between atoms: _362  and  _365
REMARK  145  A    between atoms: _365  and  _366
REMARK  146  A    between atoms: _376  and  _378
REMARK  147  A    between atoms: _378  and  _379
REMARK  148  A    between atoms: _378  and  _381
REMARK  149  A    between atoms: _381  and  _382
REMARK  150  A    between atoms: _388  and  _390
REMARK  151  A    between atoms: _390  and  _391
REMARK  152  A    between atoms: _390  and  _393
REMARK  153  A    between atoms: _393  and  _394
REMARK  154  A    between atoms: _397  and  _399
REMARK  155  A    between atoms: _399  and  _400
REMARK  156  A    between atoms: _399  and  _402
REMARK  157  A    between atoms: _402  and  _403
REMARK  158  A    between atoms: _406  and  _408
REMARK  159  A    between atoms: _408  and  _409
REMARK  160  A    between atoms: _408  and  _411
REMARK  161  A    between atoms: _411  and  _412
REMARK  162  A    between atoms: _412  and  _413
REMARK  163  A    between atoms: _413  and  _414
REMARK  164  A    between atoms: _423  and  _425
REMARK  165  A    between atoms: _425  and  _426
REMARK  166  A    between atoms: _425  and  _428
REMARK  167  A    between atoms: _428  and  _429
REMARK  168  A    between atoms: _434  and  _436
REMARK  169  A    between atoms: _436  and  _437
REMARK  170  A    between atoms: _436  and  _439
REMARK  171  A    between atoms: _439  and  _440
REMARK  172  A    between atoms: _440  and  _441
REMARK  173  A    between atoms: _441  and  _442
REMARK  174  A    between atoms: _451  and  _453
REMARK  175  A    between atoms: _453  and  _454
REMARK  176  A    between atoms: _457  and  _459
REMARK  177  A    between atoms: _459  and  _460
REMARK  178  A    between atoms: _462  and  _464
REMARK  179  A    between atoms: _464  and  _465
REMARK  180  A    between atoms: _464  and  _467
REMARK  181  A    between atoms: _467  and  _468
REMARK  182  A    between atoms: _478  and  _480
REMARK  183  A    between atoms: _480  and  _481
REMARK  184  A    between atoms: _480  and  _483
REMARK  185  A    between atoms: _483  and  _484
REMARK  186  A    between atoms: _485  and  _487
REMARK  187  A    between atoms: _487  and  _488
REMARK  188  A    between atoms: _491  and  _493
REMARK  189  A    between atoms: _493  and  _494
REMARK  190  A    between atoms: _493  and  _496
REMARK  191  A    between atoms: _496  and  _497
REMARK  192  A    between atoms: _500  and  _502
REMARK  193  A    between atoms: _502  and  _503
REMARK  194  A    between atoms: _502  and  _505
REMARK  195  A    between atoms: _505  and  _506
REMARK  196  A    between atoms: _511  and  _512
REMARK  197  A    between atoms: _514  and  _516
REMARK  198  A    between atoms: _516  and  _517
REMARK  199  A    between atoms: _516  and  _519
REMARK  200  A    between atoms: _519  and  _520
REMARK  201  A    between atoms: _522  and  _524
REMARK  202  A    between atoms: _524  and  _525
REMARK  203  A    between atoms: _524  and  _527
REMARK  204  A    between atoms: _527  and  _528
REMARK  205  A    between atoms: _534  and  _536
REMARK  206  A    between atoms: _536  and  _537
REMARK  207  A    between atoms: _536  and  _539
REMARK  208  A    between atoms: _539  and  _540
REMARK  209  A    between atoms: _543  and  _545
REMARK  210  A    between atoms: _545  and  _546
REMARK  211  A    between atoms: _545  and  _548
REMARK  212  A    between atoms: _548  and  _549
REMARK  213  A    between atoms: _551  and  _553
REMARK  214  A    between atoms: _553  and  _554
REMARK  215  A    between atoms: _553  and  _556
REMARK  216  A    between atoms: _556  and  _557
REMARK  217  A    between atoms: _559  and  _561
REMARK  218  A    between atoms: _561  and  _562
REMARK  219  A    between atoms: _561  and  _564
REMARK  220  A    between atoms: _564  and  _565
REMARK  221  A    between atoms: _570  and  _572
REMARK  222  A    between atoms: _572  and  _573
REMARK  223  A    between atoms: _572  and  _575
REMARK  224  A    between atoms: _575  and  _576
REMARK  225  A    between atoms: _581  and  _583
REMARK  226  A    between atoms: _583  and  _584
REMARK  227  A    between atoms: _583  and  _586
REMARK  228  A    between atoms: _586  and  _587
REMARK  229  A    between atoms: _590  and  _592
REMARK  230  A    between atoms: _592  and  _593
REMARK  231  A    between atoms: _596  and  _598
REMARK  232  A    between atoms: _598  and  _599
REMARK  233  A    between atoms: _598  and  _601
REMARK  234  A    between atoms: _601  and  _602
REMARK  235  A    between atoms: _607  and  _608
REMARK  236  A    between atoms: _610  and  _612
REMARK  237  A    between atoms: _612  and  _613
REMARK  238  A    between atoms: _612  and  _615
REMARK  239  A    between atoms: _615  and  _616
REMARK  240  A    between atoms: _621  and  _622
REMARK  241  A    between atoms: _624  and  _626
REMARK  242  A    between atoms: _626  and  _627
REMARK  243  A    between atoms: _626  and  _629
REMARK  244  A    between atoms: _632  and  _634
REMARK  245  A    between atoms: _634  and  _635
REMARK  246  A    between atoms: _634  and  _637
REMARK  247  A    between atoms: _637  and  _638
REMARK  248  A    between atoms: _643  and  _645
REMARK  249  A    between atoms: _645  and  _646
REMARK  250  A    between atoms: _649  and  _651
REMARK  251  A    between atoms: _651  and  _652
REMARK  252  A    between atoms: _651  and  _654
REMARK  253  A    between atoms: _654  and  _655
REMARK  254  A    between atoms: _655  and  _656
REMARK  255  A    between atoms: _656  and  _657
REMARK  256  A    between atoms: _666  and  _668
REMARK  257  A    between atoms: _668  and  _669
REMARK  258  A    between atoms: _668  and  _671
REMARK  259  A    between atoms: _671  and  _672
REMARK  260  A    between atoms: _675  and  _677
REMARK  261  A    between atoms: _677  and  _678
REMARK  262  A    between atoms: _677  and  _680
REMARK  263  A    between atoms: _680  and  _681
REMARK  264  A    between atoms: _684  and  _686
REMARK  265  A    between atoms: _686  and  _687
REMARK  266  A    between atoms: _686  and  _689
REMARK  267  A    between atoms: _689  and  _690
REMARK                            x       y       z     vdW  Elec       q    Type
REMARK                         _______ _______ _______ _____ _____    ______ ____
ROOT
ATOM      1  O   HOH     1      11.266  28.447  16.220  0.00  0.00    +0.000 OA
ENDROOT
TORSDOF 0
REMARK  Name = ../refined-set-2016/2olb/2olb_pocket.pdb
REMARK  267 active torsions:
REMARK  status: ('A' for Active; 'I' for Inactive)
REMARK    1  A    between atoms: _1  and  _3
REMARK    2  A    between atoms: _3  and  _4
REMARK    3  A    between atoms: _3  and  _6
REMARK    4  A    between atoms: _6  and  _7
REMARK    5  A    between atoms: _12  and  _14
REMARK    6  A    between atoms: _14  and  _15
REMARK    7  A    between atoms: _17  and  _19
REMARK    8  A    between atoms: _19  and  _20
REMARK    9  A    between atoms: _19  and  _22
REMARK   10  A    between atoms: _22  and  _23
REMARK   11  A    between atoms: _23  and  _24
REMARK   12  A    between atoms: _29  and  _31
REMARK   13  A    between atoms: _31  and  _32
REMARK   14  A    between atoms: _31  and  _34
REMARK   15  A    between atoms: _34  and  _35
REMARK   16  A    between atoms: _38  and  _40
REMARK   17  A    between atoms: _40  and  _41
REMARK   18  A    between atoms: _40  and  _43
REMARK   19  A    between atoms: _43  and  _44
REMARK   20  A    between atoms: _44  and  _45
REMARK   21  A    between atoms: _48  and  _50
REMARK   22  A    between atoms: _50  and  _51
REMARK   23  A    between atoms: _53  and  _55
REMARK   24  A    between atoms: _55  and  _56
REMARK   25  A    between atoms: _55  and  _58
REMARK   26  A    between atoms: _62  and  _63
REMARK   27  A    between atoms: _68  and  _70
REMARK   28  A    between atoms: _70  and  _71
REMARK   29  A    between atoms: _70  and  _73
REMARK   30  A    between atoms: _73  and  _74
REMARK   31  A    between atoms: _74  and  _75
REMARK   32  A    between atoms: _78  and  _80
REMARK   33  A    between atoms: _80  and  _81
REMARK   34  A    between atoms: _80  and  _83
REMARK   35  A    between atoms: _83  and  _84
REMARK   36  A    between atoms: _86  and  _88
REMARK   37  A    between atoms: _88  and  _89
REMARK   38  A    between atoms: _88  and  _91
REMARK   39  A    between atoms: _91  and  _92
REMARK   40  A    between atoms: _97  and  _99
REMARK   41  A    between atoms: _99  and  _100
REMARK   42  A    between atoms: _99  and  _102
REMARK   43  A    between atoms: _102  and  _103
REMARK   44  A    between atoms: _103  and  _104
REMARK   45  A    between atoms: _104  and  _105
REMARK   46  A    between atoms: _115  and  _116
REMARK   47  A    between atoms: _121  and  _123
REMARK   48  A    between atoms: _123  and  _124
REMARK   49  A    between atoms: _123  and  _126
REMARK   50  A    between atoms: _126  and  _127
REMARK   51  A    between atoms: _132  and  _133
REMARK   52  A    between atoms: _135  and  _137
REMARK   53  A    between atoms: _137  and  _138
REMARK   54  A    between atoms: _137  and  _140
REMARK   55  A    between atoms: _140  and  _141
REMARK   56  A    between atoms: _146  and  _147
REMARK   57  A    between atoms: _149  and  _151
REMARK   58  A    between atoms: _151  and  _152
REMARK   59  A    between atoms: _151  and  _154
REMARK   60  A    between atoms: _157  and  _159
REMARK   61  A    between atoms: _159  and  _160
REMARK   62  A    between atoms: _159  and  _162
REMARK   63  A    between atoms: _162  and  _163
REMARK   64  A    between atoms: _169  and  _170
REMARK   65  A    between atoms: _175  and  _177
REMARK   66  A    between atoms: _177  and  _178
REMARK   67  A    between atoms: _177  and  _180
REMARK   68  A    between atoms: _180  and  _181
REMARK   69  A    between atoms: _183  and  _185
REMARK   70  A    between atoms: _185  and  _186
REMARK   71  A    between atoms: _185  and  _188
REMARK   72  A    between atoms: _188  and  _189
REMARK   73  A    between atoms: _189  and  _190
REMARK   74  A    between atoms: _193  and  _195
REMARK   75  A    between atoms: _195  and  _196
REMARK   76  A    between atoms: _195  and  _198
REMARK   77  A    between atoms: _198  and  _199
REMARK   78  A    between atoms: _204  and  _205
REMARK   79  A    between atoms: _207  and  _209
REMARK   80  A    between atoms: _209  and  _210
REMARK   81  A    between atoms: _209  and  _212
REMARK   82  A    between atoms: _212  and  _213
REMARK   83  A    between atoms: _218  and  _220
REMARK   84  A    between atoms: _220  and  _221
REMARK   85  A    between atoms: _220  and  _223
REMARK   86  A    between atoms: _223  and  _224
REMARK   87  A    between atoms: _229  and  _231
REMARK   88  A    between atoms: _231  and  _232
REMARK   89  A    between atoms: _231  and  _234
REMARK   90  A    between atoms: _234  and  _235
REMARK   91  A    between atoms: _235  and  _236
REMARK   92  A    between atoms: _238  and  _240
REMARK   93  A    between atoms: _240  and  _241
REMARK   94  A    between atoms: _240  and  _243
REMARK   95  A    between atoms: _243  and  _244
REMARK   96  A    between atoms: _249  and  _250
REMARK   97  A    between atoms: _252  and  _254
REMARK   98  A    between atoms: _254  and  _255
REMARK   99  A    between atoms: _254  and  _257
REMARK  100  A    between atoms: _257  and  _258
REMARK  101  A    between atoms: _261  and  _263
REMARK  102  A    between atoms: _263  and  _264
REMARK  103  A    between atoms: _263  and  _266
REMARK  104  A    between atoms: _266  and  _267
REMARK  105  A    between atoms: _267  and  _484
REMARK  106  A    between atoms: _268  and  _270
REMARK  107  A    between atoms: _270  and  _271
REMARK  108  A    between atoms: _270  and  _273
REMARK  109  A    between atoms: _273  and  _274
REMARK  110  A    between atoms: _277  and  _279
REMARK  111  A    between atoms: _279  and  _280
REMARK  112  A    between atoms: _279  and  _282
REMARK  113  A    between atoms: _282  and  _283
REMARK  114  A    between atoms: _288  and  _289
REMARK  115  A    between atoms: _291  and  _293
REMARK  116  A    between atoms: _293  and  _294
REMARK  117  A    between atoms: _293  and  _296
REMARK  118  A    between atoms: _296  and  _297
REMARK  119  A    between atoms: _302  and  _303
REMARK  120  A    between atoms: _305  and  _307
REMARK  121  A    between atoms: _307  and  _308
REMARK  122  A    between atoms: _307  and  _310
REMARK  123  A    between atoms: _310  and  _311
REMARK  124  A    between atoms: _311  and  _312
REMARK  125  A    between atoms: _315  and  _317
REMARK  126  A    between atoms: _317  and  _318
REMARK  127  A    between atoms: _317  and  _320
REMARK  128  A    between atoms: _320  and  _321
REMARK  129  A    between atoms: _326  and  _327
REMARK  130  A    between atoms: _329  and  _331
REMARK  131  A    between atoms: _331  and  _332
REMARK  132  A    between atoms: _331  and  _334
REMARK  133  A    between atoms: _334  and  _335
REMARK  134  A    between atoms: _340  and  _342
REMARK  135  A    between atoms: _342  and  _343
REMARK  136  A    between atoms: _342  and  _345
REMARK  137  A    between atoms: _345  and  _346
REMARK  138  A    between atoms: _349  and  _351
REMARK  139  A    between atoms: _351  and  _352
REMARK  140  A    between atoms: _351  and  _354
REMARK  141  A    between atoms: _354  and  _355
REMARK  142  A    between atoms: _360  and  _362
REMARK  143  A    between atoms: _362  and  _363
REMARK  144  A    between atoms: _362  and  _365
REMARK  145  A    between atoms: _365  and  _366
REMARK  146  A    between atoms: _376  and  _378
REMARK  147  A    between atoms: _378  and  _379
REMARK  148  A    between atoms: _378  and  _381
REMARK  149  A    between atoms: _381  and  _382
REMARK  150  A    between atoms: _388  and  _390
REMARK  151  A    between atoms: _390  and  _391
REMARK  152  A    between atoms: _390  and  _393
REMARK  153  A    between atoms: _393  and  _394
REMARK  154  A    between atoms: _397  and  _399
REMARK  155  A    between atoms: _399  and  _400
REMARK  156  A    between atoms: _399  and  _402
REMARK  157  A    between atoms: _402  and  _403
REMARK  158  A    between atoms: _406  and  _408
REMARK  159  A    between atoms: _408  and  _409
REMARK  160  A    between atoms: _408  and  _411
REMARK  161  A    between atoms: _411  and  _412
REMARK  162  A    between atoms: _412  and  _413
REMARK  163  A    between atoms: _413  and  _414
REMARK  164  A    between atoms: _423  and  _425
REMARK  165  A    between atoms: _425  and  _426
REMARK  166  A    between atoms: _425  and  _428
REMARK  167  A    between atoms: _428  and  _429
REMARK  168  A    between atoms: _434  and  _436
REMARK  169  A    between atoms: _436  and  _437
REMARK  170  A    between atoms: _436  and  _439
REMARK  171  A    between atoms: _439  and  _440
REMARK  172  A    between atoms: _440  and  _441
REMARK  173  A    between atoms: _441  and  _442
REMARK  174  A    between atoms: _451  and  _453
REMARK  175  A    between atoms: _453  and  _454
REMARK  176  A    between atoms: _457  and  _459
REMARK  177  A    between atoms: _459  and  _460
REMARK  178  A    between atoms: _462  and  _464
REMARK  179  A    between atoms: _464  and  _465
REMARK  180  A    between atoms: _464  and  _467
REMARK  181  A    between atoms: _467  and  _468
REMARK  182  A    between atoms: _478  and  _480
REMARK  183  A    between atoms: _480  and  _481
REMARK  184  A    between atoms: _480  and  _483
REMARK  185  A    between atoms: _483  and  _484
REMARK  186  A    between atoms: _485  and  _487
REMARK  187  A    between atoms: _487  and  _488
REMARK  188  A    between atoms: _491  and  _493
REMARK  189  A    between atoms: _493  and  _494
REMARK  190  A    between atoms: _493  and  _496
REMARK  191  A    between atoms: _496  and  _497
REMARK  192  A    between atoms: _500  and  _502
REMARK  193  A    between atoms: _502  and  _503
REMARK  194  A    between atoms: _502  and  _505
REMARK  195  A    between atoms: _505  and  _506
REMARK  196  A    between atoms: _511  and  _512
REMARK  197  A    between atoms: _514  and  _516
REMARK  198  A    between atoms: _516  and  _517
REMARK  199  A    between atoms: _516  and  _519
REMARK  200  A    between atoms: _519  and  _520
REMARK  201  A    between atoms: _522  and  _524
REMARK  202  A    between atoms: _524  and  _525
REMARK  203  A    between atoms: _524  and  _527
REMARK  204  A    between atoms: _527  and  _528
REMARK  205  A    between atoms: _534  and  _536
REMARK  206  A    between atoms: _536  and  _537
REMARK  207  A    between atoms: _536  and  _539
REMARK  208  A    between atoms: _539  and  _540
REMARK  209  A    between atoms: _543  and  _545
REMARK  210  A    between atoms: _545  and  _546
REMARK  211  A    between atoms: _545  and  _548
REMARK  212  A    between atoms: _548  and  _549
REMARK  213  A    between atoms: _551  and  _553
REMARK  214  A    between atoms: _553  and  _554
REMARK  215  A    between atoms: _553  and  _556
REMARK  216  A    between atoms: _556  and  _557
REMARK  217  A    between atoms: _559  and  _561
REMARK  218  A    between atoms: _561  and  _562
REMARK  219  A    between atoms: _561  and  _564
REMARK  220  A    between atoms: _564  and  _565
REMARK  221  A    between atoms: _570  and  _572
REMARK  222  A    between atoms: _572  and  _573
REMARK  223  A    between atoms: _572  and  _575
REMARK  224  A    between atoms: _575  and  _576
REMARK  225  A    between atoms: _581  and  _583
REMARK  226  A    between atoms: _583  and  _584
REMARK  227  A    between atoms: _583  and  _586
REMARK  228  A    between atoms: _586  and  _587
REMARK  229  A    between atoms: _590  and  _592
REMARK  230  A    between atoms: _592  and  _593
REMARK  231  A    between atoms: _596  and  _598
REMARK  232  A    between atoms: _598  and  _599
REMARK  233  A    between atoms: _598  and  _601
REMARK  234  A    between atoms: _601  and  _602
REMARK  235  A    between atoms: _607  and  _608
REMARK  236  A    between atoms: _610  and  _612
REMARK  237  A    between atoms: _612  and  _613
REMARK  238  A    between atoms: _612  and  _615
REMARK  239  A    between atoms: _615  and  _616
REMARK  240  A    between atoms: _621  and  _622
REMARK  241  A    between atoms: _624  and  _626
REMARK  242  A    between atoms: _626  and  _627
REMARK  243  A    between atoms: _626  and  _629
REMARK  244  A    between atoms: _632  and  _634
REMARK  245  A    between atoms: _634  and  _635
REMARK  246  A    between atoms: _634  and  _637
REMARK  247  A    between atoms: _637  and  _638
REMARK  248  A    between atoms: _643  and  _645
REMARK  249  A    between atoms: _645  and  _646
REMARK  250  A    between atoms: _649  and  _651
REMARK  251  A    between atoms: _651  and  _652
REMARK  252  A    between atoms: _651  and  _654
REMARK  253  A    between atoms: _654  and  _655
REMARK  254  A    between atoms: _655  and  _656
REMARK  255  A    between atoms: _656  and  _657
REMARK  256  A    between atoms: _666  and  _668
REMARK  257  A    between atoms: _668  and  _669
REMARK  258  A    between atoms: _668  and  _671
REMARK  259  A    between atoms: _671  and  _672
REMARK  260  A    between atoms: _675  and  _677
REMARK  261  A    between atoms: _677  and  _678
REMARK  262  A    between atoms: _677  and  _680
REMARK  263  A    between atoms: _680  and  _681
REMARK  264  A    between atoms: _684  and  _686
REMARK  265  A    between atoms: _686  and  _687
REMARK  266  A    between atoms: _686  and  _689
REMARK  267  A    between atoms: _689  and  _690
REMARK                            x       y       z     vdW  Elec       q    Type
REMARK                         _______ _______ _______ _____ _____    ______ ____
ROOT
ATOM      1  O   HOH     1      -3.449  18.009   5.700  0.00  0.00    +0.000 OA
ENDROOT
TORSDOF 0
REMARK  Name = ../refined-set-2016/2olb/2olb_pocket.pdb
REMARK  267 active torsions:
REMARK  status: ('A' for Active; 'I' for Inactive)
REMARK    1  A    between atoms: _1  and  _3
REMARK    2  A    between atoms: _3  and  _4
REMARK    3  A    between atoms: _3  and  _6
REMARK    4  A    between atoms: _6  and  _7
REMARK    5  A    between atoms: _12  and  _14
REMARK    6  A    between atoms: _14  and  _15
REMARK    7  A    between atoms: _17  and  _19
REMARK    8  A    between atoms: _19  and  _20
REMARK    9  A    between atoms: _19  and  _22
REMARK   10  A    between atoms: _22  and  _23
REMARK   11  A    between atoms: _23  and  _24
REMARK   12  A    between atoms: _29  and  _31
REMARK   13  A    between atoms: _31  and  _32
REMARK   14  A    between atoms: _31  and  _34
REMARK   15  A    between atoms: _34  and  _35
REMARK   16  A    between atoms: _38  and  _40
REMARK   17  A    between atoms: _40  and  _41
REMARK   18  A    between atoms: _40  and  _43
REMARK   19  A    between atoms: _43  and  _44
REMARK   20  A    between atoms: _44  and  _45
REMARK   21  A    between atoms: _48  and  _50
REMARK   22  A    between atoms: _50  and  _51
REMARK   23  A    between atoms: _53  and  _55
REMARK   24  A    between atoms: _55  and  _56
REMARK   25  A    between atoms: _55  and  _58
REMARK   26  A    between atoms: _62  and  _63
REMARK   27  A    between atoms: _68  and  _70
REMARK   28  A    between atoms: _70  and  _71
REMARK   29  A    between atoms: _70  and  _73
REMARK   30  A    between atoms: _73  and  _74
REMARK   31  A    between atoms: _74  and  _75
REMARK   32  A    between atoms: _78  and  _80
REMARK   33  A    between atoms: _80  and  _81
REMARK   34  A    between atoms: _80  and  _83
REMARK   35  A    between atoms: _83  and  _84
REMARK   36  A    between atoms: _86  and  _88
REMARK   37  A    between atoms: _88  and  _89
REMARK   38  A    between atoms: _88  and  _91
REMARK   39  A    between atoms: _91  and  _92
REMARK   40  A    between atoms: _97  and  _99
REMARK   41  A    between atoms: _99  and  _100
REMARK   42  A    between atoms: _99  and  _102
REMARK   43  A    between atoms: _102  and  _103
REMARK   44  A    between atoms: _103  and  _104
REMARK   45  A    between atoms: _104  and  _105
REMARK   46  A    between atoms: _115  and  _116
REMARK   47  A    between atoms: _121  and  _123
REMARK   48  A    between atoms: _123  and  _124
REMARK   49  A    between atoms: _123  and  _126
REMARK   50  A    between atoms: _126  and  _127
REMARK   51  A    between atoms: _132  and  _133
REMARK   52  A    between atoms: _135  and  _137
REMARK   53  A    between atoms: _137  and  _138
REMARK   54  A    between atoms: _137  and  _140
REMARK   55  A    between atoms: _140  and  _141
REMARK   56  A    between atoms: _146  and  _147
REMARK   57  A    between atoms: _149  and  _151
REMARK   58  A    between atoms: _151  and  _152
REMARK   59  A    between atoms: _151  and  _154
REMARK   60  A    between atoms: _157  and  _159
REMARK   61  A    between atoms: _159  and  _160
REMARK   62  A    between atoms: _159  and  _162
REMARK   63  A    between atoms: _162  and  _163
REMARK   64  A    between atoms: _169  and  _170
REMARK   65  A    between atoms: _175  and  _177
REMARK   66  A    between atoms: _177  and  _178
REMARK   67  A    between atoms: _177  and  _180
REMARK   68  A    between atoms: _180  and  _181
REMARK   69  A    between atoms: _183  and  _185
REMARK   70  A    between atoms: _185  and  _186
REMARK   71  A    between atoms: _185  and  _188
REMARK   72  A    between atoms: _188  and  _189
REMARK   73  A    between atoms: _189  and  _190
REMARK   74  A    between atoms: _193  and  _195
REMARK   75  A    between atoms: _195  and  _196
REMARK   76  A    between atoms: _195  and  _198
REMARK   77  A    between atoms: _198  and  _199
REMARK   78  A    between atoms: _204  and  _205
REMARK   79  A    between atoms: _207  and  _209
REMARK   80  A    between atoms: _209  and  _210
REMARK   81  A    between atoms: _209  and  _212
REMARK   82  A    between atoms: _212  and  _213
REMARK   83  A    between atoms: _218  and  _220
REMARK   84  A    between atoms: _220  and  _221
REMARK   85  A    between atoms: _220  and  _223
REMARK   86  A    between atoms: _223  and  _224
REMARK   87  A    between atoms: _229  and  _231
REMARK   88  A    between atoms: _231  and  _232
REMARK   89  A    between atoms: _231  and  _234
REMARK   90  A    between atoms: _234  and  _235
REMARK   91  A    between atoms: _235  and  _236
REMARK   92  A    between atoms: _238  and  _240
REMARK   93  A    between atoms: _240  and  _241
REMARK   94  A    between atoms: _240  and  _243
REMARK   95  A    between atoms: _243  and  _244
REMARK   96  A    between atoms: _249  and  _250
REMARK   97  A    between atoms: _252  and  _254
REMARK   98  A    between atoms: _254  and  _255
REMARK   99  A    between atoms: _254  and  _257
REMARK  100  A    between atoms: _257  and  _258
REMARK  101  A    between atoms: _261  and  _263
REMARK  102  A    between atoms: _263  and  _264
REMARK  103  A    between atoms: _263  and  _266
REMARK  104  A    between atoms: _266  and  _267
REMARK  105  A    between atoms: _267  and  _484
REMARK  106  A    between atoms: _268  and  _270
REMARK  107  A    between atoms: _270  and  _271
REMARK  108  A    between atoms: _270  and  _273
REMARK  109  A    between atoms: _273  and  _274
REMARK  110  A    between atoms: _277  and  _279
REMARK  111  A    between atoms: _279  and  _280
REMARK  112  A    between atoms: _279  and  _282
REMARK  113  A    between atoms: _282  and  _283
REMARK  114  A    between atoms: _288  and  _289
REMARK  115  A    between atoms: _291  and  _293
REMARK  116  A    between atoms: _293  and  _294
REMARK  117  A    between atoms: _293  and  _296
REMARK  118  A    between atoms: _296  and  _297
REMARK  119  A    between atoms: _302  and  _303
REMARK  120  A    between atoms: _305  and  _307
REMARK  121  A    between atoms: _307  and  _308
REMARK  122  A    between atoms: _307  and  _310
REMARK  123  A    between atoms: _310  and  _311
REMARK  124  A    between atoms: _311  and  _312
REMARK  125  A    between atoms: _315  and  _317
REMARK  126  A    between atoms: _317  and  _318
REMARK  127  A    between atoms: _317  and  _320
REMARK  128  A    between atoms: _320  and  _321
REMARK  129  A    between atoms: _326  and  _327
REMARK  130  A    between atoms: _329  and  _331
REMARK  131  A    between atoms: _331  and  _332
REMARK  132  A    between atoms: _331  and  _334
REMARK  133  A    between atoms: _334  and  _335
REMARK  134  A    between atoms: _340  and  _342
REMARK  135  A    between atoms: _342  and  _343
REMARK  136  A    between atoms: _342  and  _345
REMARK  137  A    between atoms: _345  and  _346
REMARK  138  A    between atoms: _349  and  _351
REMARK  139  A    between atoms: _351  and  _352
REMARK  140  A    between atoms: _351  and  _354
REMARK  141  A    between atoms: _354  and  _355
REMARK  142  A    between atoms: _360  and  _362
REMARK  143  A    between atoms: _362  and  _363
REMARK  144  A    between atoms: _362  and  _365
REMARK  145  A    between atoms: _365  and  _366
REMARK  146  A    between atoms: _376  and  _378
REMARK  147  A    between atoms: _378  and  _379
REMARK  148  A    between atoms: _378  and  _381
REMARK  149  A    between atoms: _381  and  _382
REMARK  150  A    between atoms: _388  and  _390
REMARK  151  A    between atoms: _390  and  _391
REMARK  152  A    between atoms: _390  and  _393
REMARK  153  A    between atoms: _393  and  _394
REMARK  154  A    between atoms: _397  and  _399
REMARK  155  A    between atoms: _399  and  _400
REMARK  156  A    between atoms: _399  and  _402
REMARK  157  A    between atoms: _402  and  _403
REMARK  158  A    between atoms: _406  and  _408
REMARK  159  A    between atoms: _408  and  _409
REMARK  160  A    between atoms: _408  and  _411
REMARK  161  A    between atoms: _411  and  _412
REMARK  162  A    between atoms: _412  and  _413
REMARK  163  A    between atoms: _413  and  _414
REMARK  164  A    between atoms: _423  and  _425
REMARK  165  A    between atoms: _425  and  _426
REMARK  166  A    between atoms: _425  and  _428
REMARK  167  A    between atoms: _428  and  _429
REMARK  168  A    between atoms: _434  and  _436
REMARK  169  A    between atoms: _436  and  _437
REMARK  170  A    between atoms: _436  and  _439
REMARK  171  A    between atoms: _439  and  _440
REMARK  172  A    between atoms: _440  and  _441
REMARK  173  A    between atoms: _441  and  _442
REMARK  174  A    between atoms: _451  and  _453
REMARK  175  A    between atoms: _453  and  _454
REMARK  176  A    between atoms: _457  and  _459
REMARK  177  A    between atoms: _459  and  _460
REMARK  178  A    between atoms: _462  and  _464
REMARK  179  A    between atoms: _464  and  _465
REMARK  180  A    between atoms: _464  and  _467
REMARK  181  A    between atoms: _467  and  _468
REMARK  182  A    between atoms: _478  and  _480
REMARK  183  A    between atoms: _480  and  _481
REMARK  184  A    between atoms: _480  and  _483
REMARK  185  A    between atoms: _483  and  _484
REMARK  186  A    between atoms: _485  and  _487
REMARK  187  A    between atoms: _487  and  _488
REMARK  188  A    between atoms: _491  and  _493
REMARK  189  A    between atoms: _493  and  _494
REMARK  190  A    between atoms: _493  and  _496
REMARK  191  A    between atoms: _496  and  _497
REMARK  192  A    between atoms: _500  and  _502
REMARK  193  A    between atoms: _502  and  _503
REMARK  194  A    between atoms: _502  and  _505
REMARK  195  A    between atoms: _505  and  _506
REMARK  196  A    between atoms: _511  and  _512
REMARK  197  A    between atoms: _514  and  _516
REMARK  198  A    between atoms: _516  and  _517
REMARK  199  A    between atoms: _516  and  _519
REMARK  200  A    between atoms: _519  and  _520
REMARK  201  A    between atoms: _522  and  _524
REMARK  202  A    between atoms: _524  and  _525
REMARK  203  A    between atoms: _524  and  _527
REMARK  204  A    between atoms: _527  and  _528
REMARK  205  A    between atoms: _534  and  _536
REMARK  206  A    between atoms: _536  and  _537
REMARK  207  A    between atoms: _536  and  _539
REMARK  208  A    between atoms: _539  and  _540
REMARK  209  A    between atoms: _543  and  _545
REMARK  210  A    between atoms: _545  and  _546
REMARK  211  A    between atoms: _545  and  _548
REMARK  212  A    between atoms: _548  and  _549
REMARK  213  A    between atoms: _551  and  _553
REMARK  214  A    between atoms: _553  and  _554
REMARK  215  A    between atoms: _553  and  _556
REMARK  216  A    between atoms: _556  and  _557
REMARK  217  A    between atoms: _559  and  _561
REMARK  218  A    between atoms: _561  and  _562
REMARK  219  A    between atoms: _561  and  _564
REMARK  220  A    between atoms: _564  and  _565
REMARK  221  A    between atoms: _570  and  _572
REMARK  222  A    between atoms: _572  and  _573
REMARK  223  A    between atoms: _572  and  _575
REMARK  224  A    between atoms: _575  and  _576
REMARK  225  A    between atoms: _581  and  _583
REMARK  226  A    between atoms: _583  and  _584
REMARK  227  A    between atoms: _583  and  _586
REMARK  228  A    between atoms: _586  and  _587
REMARK  229  A    between atoms: _590  and  _592
REMARK  230  A    between atoms: _592  and  _593
REMARK  231  A    between atoms: _596  and  _598
REMARK  232  A    between atoms: _598  and  _599
REMARK  233  A    between atoms: _598  and  _601
REMARK  234  A    between atoms: _601  and  _602
REMARK  235  A    between atoms: _607  and  _608
REMARK  236  A    between atoms: _610  and  _612
REMARK  237  A    between atoms: _612  and  _613
REMARK  238  A    between atoms: _612  and  _615
REMARK  239  A    between atoms: _615  and  _616
REMARK  240  A    between atoms: _621  and  _622
REMARK  241  A    between atoms: _624  and  _626
REMARK  242  A    between atoms: _626  and  _627
REMARK  243  A    between atoms: _626  and  _629
REMARK  244  A    between atoms: _632  and  _634
REMARK  245  A    between atoms: _634  and  _635
REMARK  246  A    between atoms: _634  and  _637
REMARK  247  A    between atoms: _637  and  _638
REMARK  248  A    between atoms: _643  and  _645
REMARK  249  A    between atoms: _645  and  _646
REMARK  250  A    between atoms: _649  and  _651
REMARK  251  A    between atoms: _651  and  _652
REMARK  252  A    between atoms: _651  and  _654
REMARK  253  A    between atoms: _654  and  _655
REMARK  254  A    between atoms: _655  and  _656
REMARK  255  A    between atoms: _656  and  _657
REMARK  256  A    between atoms: _666  and  _668
REMARK  257  A    between atoms: _668  and  _669
REMARK  258  A    between atoms: _668  and  _671
REMARK  259  A    between atoms: _671  and  _672
REMARK  260  A    between atoms: _675  and  _677
REMARK  261  A    between atoms: _677  and  _678
REMARK  262  A    between atoms: _677  and  _680
REMARK  263  A    between atoms: _680  and  _681
REMARK  264  A    between atoms: _684  and  _686
REMARK  265  A    between atoms: _686  and  _687
REMARK  266  A    between atoms: _686  and  _689
REMARK  267  A    between atoms: _689  and  _690
REMARK                            x       y       z     vdW  Elec       q    Type
REMARK                         _______ _______ _______ _____ _____    ______ ____
ROOT
ATOM      1  O   HOH     1       8.590  29.638  16.987  0.00  0.00    +0.000 OA
ENDROOT
TORSDOF 0
REMARK  Name = ../refined-set-2016/2olb/2olb_pocket.pdb
REMARK  267 active torsions:
REMARK  status: ('A' for Active; 'I' for Inactive)
REMARK    1  A    between atoms: _1  and  _3
REMARK    2  A    between atoms: _3  and  _4
REMARK    3  A    between atoms: _3  and  _6
REMARK    4  A    between atoms: _6  and  _7
REMARK    5  A    between atoms: _12  and  _14
REMARK    6  A    between atoms: _14  and  _15
REMARK    7  A    between atoms: _17  and  _19
REMARK    8  A    between atoms: _19  and  _20
REMARK    9  A    between atoms: _19  and  _22
REMARK   10  A    between atoms: _22  and  _23
REMARK   11  A    between atoms: _23  and  _24
REMARK   12  A    between atoms: _29  and  _31
REMARK   13  A    between atoms: _31  and  _32
REMARK   14  A    between atoms: _31  and  _34
REMARK   15  A    between atoms: _34  and  _35
REMARK   16  A    between atoms: _38  and  _40
REMARK   17  A    between atoms: _40  and  _41
REMARK   18  A    between atoms: _40  and  _43
REMARK   19  A    between atoms: _43  and  _44
REMARK   20  A    between atoms: _44  and  _45
REMARK   21  A    between atoms: _48  and  _50
REMARK   22  A    between atoms: _50  and  _51
REMARK   23  A    between atoms: _53  and  _55
REMARK   24  A    between atoms: _55  and  _56
REMARK   25  A    between atoms: _55  and  _58
REMARK   26  A    between atoms: _62  and  _63
REMARK   27  A    between atoms: _68  and  _70
REMARK   28  A    between atoms: _70  and  _71
REMARK   29  A    between atoms: _70  and  _73
REMARK   30  A    between atoms: _73  and  _74
REMARK   31  A    between atoms: _74  and  _75
REMARK   32  A    between atoms: _78  and  _80
REMARK   33  A    between atoms: _80  and  _81
REMARK   34  A    between atoms: _80  and  _83
REMARK   35  A    between atoms: _83  and  _84
REMARK   36  A    between atoms: _86  and  _88
REMARK   37  A    between atoms: _88  and  _89
REMARK   38  A    between atoms: _88  and  _91
REMARK   39  A    between atoms: _91  and  _92
REMARK   40  A    between atoms: _97  and  _99
REMARK   41  A    between atoms: _99  and  _100
REMARK   42  A    between atoms: _99  and  _102
REMARK   43  A    between atoms: _102  and  _103
REMARK   44  A    between atoms: _103  and  _104
REMARK   45  A    between atoms: _104  and  _105
REMARK   46  A    between atoms: _115  and  _116
REMARK   47  A    between atoms: _121  and  _123
REMARK   48  A    between atoms: _123  and  _124
REMARK   49  A    between atoms: _123  and  _126
REMARK   50  A    between atoms: _126  and  _127
REMARK   51  A    between atoms: _132  and  _133
REMARK   52  A    between atoms: _135  and  _137
REMARK   53  A    between atoms: _137  and  _138
REMARK   54  A    between atoms: _137  and  _140
REMARK   55  A    between atoms: _140  and  _141
REMARK   56  A    between atoms: _146  and  _147
REMARK   57  A    between atoms: _149  and  _151
REMARK   58  A    between atoms: _151  and  _152
REMARK   59  A    between atoms: _151  and  _154
REMARK   60  A    between atoms: _157  and  _159
REMARK   61  A    between atoms: _159  and  _160
REMARK   62  A    between atoms: _159  and  _162
REMARK   63  A    between atoms: _162  and  _163
REMARK   64  A    between atoms: _169  and  _170
REMARK   65  A    between atoms: _175  and  _177
REMARK   66  A    between atoms: _177  and  _178
REMARK   67  A    between atoms: _177  and  _180
REMARK   68  A    between atoms: _180  and  _181
REMARK   69  A    between atoms: _183  and  _185
REMARK   70  A    between atoms: _185  and  _186
REMARK   71  A    between atoms: _185  and  _188
REMARK   72  A    between atoms: _188  and  _189
REMARK   73  A    between atoms: _189  and  _190
REMARK   74  A    between atoms: _193  and  _195
REMARK   75  A    between atoms: _195  and  _196
REMARK   76  A    between atoms: _195  and  _198
REMARK   77  A    between atoms: _198  and  _199
REMARK   78  A    between atoms: _204  and  _205
REMARK   79  A    between atoms: _207  and  _209
REMARK   80  A    between atoms: _209  and  _210
REMARK   81  A    between atoms: _209  and  _212
REMARK   82  A    between atoms: _212  and  _213
REMARK   83  A    between atoms: _218  and  _220
REMARK   84  A    between atoms: _220  and  _221
REMARK   85  A    between atoms: _220  and  _223
REMARK   86  A    between atoms: _223  and  _224
REMARK   87  A    between atoms: _229  and  _231
REMARK   88  A    between atoms: _231  and  _232
REMARK   89  A    between atoms: _231  and  _234
REMARK   90  A    between atoms: _234  and  _235
REMARK   91  A    between atoms: _235  and  _236
REMARK   92  A    between atoms: _238  and  _240
REMARK   93  A    between atoms: _240  and  _241
REMARK   94  A    between atoms: _240  and  _243
REMARK   95  A    between atoms: _243  and  _244
REMARK   96  A    between atoms: _249  and  _250
REMARK   97  A    between atoms: _252  and  _254
REMARK   98  A    between atoms: _254  and  _255
REMARK   99  A    between atoms: _254  and  _257
REMARK  100  A    between atoms: _257  and  _258
REMARK  101  A    between atoms: _261  and  _263
REMARK  102  A    between atoms: _263  and  _264
REMARK  103  A    between atoms: _263  and  _266
REMARK  104  A    between atoms: _266  and  _267
REMARK  105  A    between atoms: _267  and  _484
REMARK  106  A    between atoms: _268  and  _270
REMARK  107  A    between atoms: _270  and  _271
REMARK  108  A    between atoms: _270  and  _273
REMARK  109  A    between atoms: _273  and  _274
REMARK  110  A    between atoms: _277  and  _279
REMARK  111  A    between atoms: _279  and  _280
REMARK  112  A    between atoms: _279  and  _282
REMARK  113  A    between atoms: _282  and  _283
REMARK  114  A    between atoms: _288  and  _289
REMARK  115  A    between atoms: _291  and  _293
REMARK  116  A    between atoms: _293  and  _294
REMARK  117  A    between atoms: _293  and  _296
REMARK  118  A    between atoms: _296  and  _297
REMARK  119  A    between atoms: _302  and  _303
REMARK  120  A    between atoms: _305  and  _307
REMARK  121  A    between atoms: _307  and  _308
REMARK  122  A    between atoms: _307  and  _310
REMARK  123  A    between atoms: _310  and  _311
REMARK  124  A    between atoms: _311  and  _312
REMARK  125  A    between atoms: _315  and  _317
REMARK  126  A    between atoms: _317  and  _318
REMARK  127  A    between atoms: _317  and  _320
REMARK  128  A    between atoms: _320  and  _321
REMARK  129  A    between atoms: _326  and  _327
REMARK  130  A    between atoms: _329  and  _331
REMARK  131  A    between atoms: _331  and  _332
REMARK  132  A    between atoms: _331  and  _334
REMARK  133  A    between atoms: _334  and  _335
REMARK  134  A    between atoms: _340  and  _342
REMARK  135  A    between atoms: _342  and  _343
REMARK  136  A    between atoms: _342  and  _345
REMARK  137  A    between atoms: _345  and  _346
REMARK  138  A    between atoms: _349  and  _351
REMARK  139  A    between atoms: _351  and  _352
REMARK  140  A    between atoms: _351  and  _354
REMARK  141  A    between atoms: _354  and  _355
REMARK  142  A    between atoms: _360  and  _362
REMARK  143  A    between atoms: _362  and  _363
REMARK  144  A    between atoms: _362  and  _365
REMARK  145  A    between atoms: _365  and  _366
REMARK  146  A    between atoms: _376  and  _378
REMARK  147  A    between atoms: _378  and  _379
REMARK  148  A    between atoms: _378  and  _381
REMARK  149  A    between atoms: _381  and  _382
REMARK  150  A    between atoms: _388  and  _390
REMARK  151  A    between atoms: _390  and  _391
REMARK  152  A    between atoms: _390  and  _393
REMARK  153  A    between atoms: _393  and  _394
REMARK  154  A    between atoms: _397  and  _399
REMARK  155  A    between atoms: _399  and  _400
REMARK  156  A    between atoms: _399  and  _402
REMARK  157  A    between atoms: _402  and  _403
REMARK  158  A    between atoms: _406  and  _408
REMARK  159  A    between atoms: _408  and  _409
REMARK  160  A    between atoms: _408  and  _411
REMARK  161  A    between atoms: _411  and  _412
REMARK  162  A    between atoms: _412  and  _413
REMARK  163  A    between atoms: _413  and  _414
REMARK  164  A    between atoms: _423  and  _425
REMARK  165  A    between atoms: _425  and  _426
REMARK  166  A    between atoms: _425  and  _428
REMARK  167  A    between atoms: _428  and  _429
REMARK  168  A    between atoms: _434  and  _436
REMARK  169  A    between atoms: _436  and  _437
REMARK  170  A    between atoms: _436  and  _439
REMARK  171  A    between atoms: _439  and  _440
REMARK  172  A    between atoms: _440  and  _441
REMARK  173  A    between atoms: _441  and  _442
REMARK  174  A    between atoms: _451  and  _453
REMARK  175  A    between atoms: _453  and  _454
REMARK  176  A    between atoms: _457  and  _459
REMARK  177  A    between atoms: _459  and  _460
REMARK  178  A    between atoms: _462  and  _464
REMARK  179  A    between atoms: _464  and  _465
REMARK  180  A    between atoms: _464  and  _467
REMARK  181  A    between atoms: _467  and  _468
REMARK  182  A    between atoms: _478  and  _480
REMARK  183  A    between atoms: _480  and  _481
REMARK  184  A    between atoms: _480  and  _483
REMARK  185  A    between atoms: _483  and  _484
REMARK  186  A    between atoms: _485  and  _487
REMARK  187  A    between atoms: _487  and  _488
REMARK  188  A    between atoms: _491  and  _493
REMARK  189  A    between atoms: _493  and  _494
REMARK  190  A    between atoms: _493  and  _496
REMARK  191  A    between atoms: _496  and  _497
REMARK  192  A    between atoms: _500  and  _502
REMARK  193  A    between atoms: _502  and  _503
REMARK  194  A    between atoms: _502  and  _505
REMARK  195  A    between atoms: _505  and  _506
REMARK  196  A    between atoms: _511  and  _512
REMARK  197  A    between atoms: _514  and  _516
REMARK  198  A    between atoms: _516  and  _517
REMARK  199  A    between atoms: _516  and  _519
REMARK  200  A    between atoms: _519  and  _520
REMARK  201  A    between atoms: _522  and  _524
REMARK  202  A    between atoms: _524  and  _525
REMARK  203  A    between atoms: _524  and  _527
REMARK  204  A    between atoms: _527  and  _528
REMARK  205  A    between atoms: _534  and  _536
REMARK  206  A    between atoms: _536  and  _537
REMARK  207  A    between atoms: _536  and  _539
REMARK  208  A    between atoms: _539  and  _540
REMARK  209  A    between atoms: _543  and  _545
REMARK  210  A    between atoms: _545  and  _546
REMARK  211  A    between atoms: _545  and  _548
REMARK  212  A    between atoms: _548  and  _549
REMARK  213  A    between atoms: _551  and  _553
REMARK  214  A    between atoms: _553  and  _554
REMARK  215  A    between atoms: _553  and  _556
REMARK  216  A    between atoms: _556  and  _557
REMARK  217  A    between atoms: _559  and  _561
REMARK  218  A    between atoms: _561  and  _562
REMARK  219  A    between atoms: _561  and  _564
REMARK  220  A    between atoms: _564  and  _565
REMARK  221  A    between atoms: _570  and  _572
REMARK  222  A    between atoms: _572  and  _573
REMARK  223  A    between atoms: _572  and  _575
REMARK  224  A    between atoms: _575  and  _576
REMARK  225  A    between atoms: _581  and  _583
REMARK  226  A    between atoms: _583  and  _584
REMARK  227  A    between atoms: _583  and  _586
REMARK  228  A    between atoms: _586  and  _587
REMARK  229  A    between atoms: _590  and  _592
REMARK  230  A    between atoms: _592  and  _593
REMARK  231  A    between atoms: _596  and  _598
REMARK  232  A    between atoms: _598  and  _599
REMARK  233  A    between atoms: _598  and  _601
REMARK  234  A    between atoms: _601  and  _602
REMARK  235  A    between atoms: _607  and  _608
REMARK  236  A    between atoms: _610  and  _612
REMARK  237  A    between atoms: _612  and  _613
REMARK  238  A    between atoms: _612  and  _615
REMARK  239  A    between atoms: _615  and  _616
REMARK  240  A    between atoms: _621  and  _622
REMARK  241  A    between atoms: _624  and  _626
REMARK  242  A    between atoms: _626  and  _627
REMARK  243  A    between atoms: _626  and  _629
REMARK  244  A    between atoms: _632  and  _634
REMARK  245  A    between atoms: _634  and  _635
REMARK  246  A    between atoms: _634  and  _637
REMARK  247  A    between atoms: _637  and  _638
REMARK  248  A    between atoms: _643  and  _645
REMARK  249  A    between atoms: _645  and  _646
REMARK  250  A    between atoms: _649  and  _651
REMARK  251  A    between atoms: _651  and  _652
REMARK  252  A    between atoms: _651  and  _654
REMARK  253  A    between atoms: _654  and  _655
REMARK  254  A    between atoms: _655  and  _656
REMARK  255  A    between atoms: _656  and  _657
REMARK  256  A    between atoms: _666  and  _668
REMARK  257  A    between atoms: _668  and  _669
REMARK  258  A    between atoms: _668  and  _671
REMARK  259  A    between atoms: _671  and  _672
REMARK  260  A    between atoms: _675  and  _677
REMARK  261  A    between atoms: _677  and  _678
REMARK  262  A    between atoms: _677  and  _680
REMARK  263  A    between atoms: _680  and  _681
REMARK  264  A    between atoms: _684  and  _686
REMARK  265  A    between atoms: _686  and  _687
REMARK  266  A    between atoms: _686  and  _689
REMARK  267  A    between atoms: _689  and  _690
REMARK                            x       y       z     vdW  Elec       q    Type
REMARK                         _______ _______ _______ _____ _____    ______ ____
ROOT
ATOM      1  O   HOH     1       4.476  14.078   9.317  0.00  0.00    +0.000 OA
ENDROOT
TORSDOF 0
REMARK  Name = ../refined-set-2016/2olb/2olb_pocket.pdb
REMARK  267 active torsions:
REMARK  status: ('A' for Active; 'I' for Inactive)
REMARK    1  A    between atoms: _1  and  _3
REMARK    2  A    between atoms: _3  and  _4
REMARK    3  A    between atoms: _3  and  _6
REMARK    4  A    between atoms: _6  and  _7
REMARK    5  A    between atoms: _12  and  _14
REMARK    6  A    between atoms: _14  and  _15
REMARK    7  A    between atoms: _17  and  _19
REMARK    8  A    between atoms: _19  and  _20
REMARK    9  A    between atoms: _19  and  _22
REMARK   10  A    between atoms: _22  and  _23
REMARK   11  A    between atoms: _23  and  _24
REMARK   12  A    between atoms: _29  and  _31
REMARK   13  A    between atoms: _31  and  _32
REMARK   14  A    between atoms: _31  and  _34
REMARK   15  A    between atoms: _34  and  _35
REMARK   16  A    between atoms: _38  and  _40
REMARK   17  A    between atoms: _40  and  _41
REMARK   18  A    between atoms: _40  and  _43
REMARK   19  A    between atoms: _43  and  _44
REMARK   20  A    between atoms: _44  and  _45
REMARK   21  A    between atoms: _48  and  _50
REMARK   22  A    between atoms: _50  and  _51
REMARK   23  A    between atoms: _53  and  _55
REMARK   24  A    between atoms: _55  and  _56
REMARK   25  A    between atoms: _55  and  _58
REMARK   26  A    between atoms: _62  and  _63
REMARK   27  A    between atoms: _68  and  _70
REMARK   28  A    between atoms: _70  and  _71
REMARK   29  A    between atoms: _70  and  _73
REMARK   30  A    between atoms: _73  and  _74
REMARK   31  A    between atoms: _74  and  _75
REMARK   32  A    between atoms: _78  and  _80
REMARK   33  A    between atoms: _80  and  _81
REMARK   34  A    between atoms: _80  and  _83
REMARK   35  A    between atoms: _83  and  _84
REMARK   36  A    between atoms: _86  and  _88
REMARK   37  A    between atoms: _88  and  _89
REMARK   38  A    between atoms: _88  and  _91
REMARK   39  A    between atoms: _91  and  _92
REMARK   40  A    between atoms: _97  and  _99
REMARK   41  A    between atoms: _99  and  _100
REMARK   42  A    between atoms: _99  and  _102
REMARK   43  A    between atoms: _102  and  _103
REMARK   44  A    between atoms: _103  and  _104
REMARK   45  A    between atoms: _104  and  _105
REMARK   46  A    between atoms: _115  and  _116
REMARK   47  A    between atoms: _121  and  _123
REMARK   48  A    between atoms: _123  and  _124
REMARK   49  A    between atoms: _123  and  _126
REMARK   50  A    between atoms: _126  and  _127
REMARK   51  A    between atoms: _132  and  _133
REMARK   52  A    between atoms: _135  and  _137
REMARK   53  A    between atoms: _137  and  _138
REMARK   54  A    between atoms: _137  and  _140
REMARK   55  A    between atoms: _140  and  _141
REMARK   56  A    between atoms: _146  and  _147
REMARK   57  A    between atoms: _149  and  _151
REMARK   58  A    between atoms: _151  and  _152
REMARK   59  A    between atoms: _151  and  _154
REMARK   60  A    between atoms: _157  and  _159
REMARK   61  A    between atoms: _159  and  _160
REMARK   62  A    between atoms: _159  and  _162
REMARK   63  A    between atoms: _162  and  _163
REMARK   64  A    between atoms: _169  and  _170
REMARK   65  A    between atoms: _175  and  _177
REMARK   66  A    between atoms: _177  and  _178
REMARK   67  A    between atoms: _177  and  _180
REMARK   68  A    between atoms: _180  and  _181
REMARK   69  A    between atoms: _183  and  _185
REMARK   70  A    between atoms: _185  and  _186
REMARK   71  A    between atoms: _185  and  _188
REMARK   72  A    between atoms: _188  and  _189
REMARK   73  A    between atoms: _189  and  _190
REMARK   74  A    between atoms: _193  and  _195
REMARK   75  A    between atoms: _195  and  _196
REMARK   76  A    between atoms: _195  and  _198
REMARK   77  A    between atoms: _198  and  _199
REMARK   78  A    between atoms: _204  and  _205
REMARK   79  A    between atoms: _207  and  _209
REMARK   80  A    between atoms: _209  and  _210
REMARK   81  A    between atoms: _209  and  _212
REMARK   82  A    between atoms: _212  and  _213
REMARK   83  A    between atoms: _218  and  _220
REMARK   84  A    between atoms: _220  and  _221
REMARK   85  A    between atoms: _220  and  _223
REMARK   86  A    between atoms: _223  and  _224
REMARK   87  A    between atoms: _229  and  _231
REMARK   88  A    between atoms: _231  and  _232
REMARK   89  A    between atoms: _231  and  _234
REMARK   90  A    between atoms: _234  and  _235
REMARK   91  A    between atoms: _235  and  _236
REMARK   92  A    between atoms: _238  and  _240
REMARK   93  A    between atoms: _240  and  _241
REMARK   94  A    between atoms: _240  and  _243
REMARK   95  A    between atoms: _243  and  _244
REMARK   96  A    between atoms: _249  and  _250
REMARK   97  A    between atoms: _252  and  _254
REMARK   98  A    between atoms: _254  and  _255
REMARK   99  A    between atoms: _254  and  _257
REMARK  100  A    between atoms: _257  and  _258
REMARK  101  A    between atoms: _261  and  _263
REMARK  102  A    between atoms: _263  and  _264
REMARK  103  A    between atoms: _263  and  _266
REMARK  104  A    between atoms: _266  and  _267
REMARK  105  A    between atoms: _267  and  _484
REMARK  106  A    between atoms: _268  and  _270
REMARK  107  A    between atoms: _270  and  _271
REMARK  108  A    between atoms: _270  and  _273
REMARK  109  A    between atoms: _273  and  _274
REMARK  110  A    between atoms: _277  and  _279
REMARK  111  A    between atoms: _279  and  _280
REMARK  112  A    between atoms: _279  and  _282
REMARK  113  A    between atoms: _282  and  _283
REMARK  114  A    between atoms: _288  and  _289
REMARK  115  A    between atoms: _291  and  _293
REMARK  116  A    between atoms: _293  and  _294
REMARK  117  A    between atoms: _293  and  _296
REMARK  118  A    between atoms: _296  and  _297
REMARK  119  A    between atoms: _302  and  _303
REMARK  120  A    between atoms: _305  and  _307
REMARK  121  A    between atoms: _307  and  _308
REMARK  122  A    between atoms: _307  and  _310
REMARK  123  A    between atoms: _310  and  _311
REMARK  124  A    between atoms: _311  and  _312
REMARK  125  A    between atoms: _315  and  _317
REMARK  126  A    between atoms: _317  and  _318
REMARK  127  A    between atoms: _317  and  _320
REMARK  128  A    between atoms: _320  and  _321
REMARK  129  A    between atoms: _326  and  _327
REMARK  130  A    between atoms: _329  and  _331
REMARK  131  A    between atoms: _331  and  _332
REMARK  132  A    between atoms: _331  and  _334
REMARK  133  A    between atoms: _334  and  _335
REMARK  134  A    between atoms: _340  and  _342
REMARK  135  A    between atoms: _342  and  _343
REMARK  136  A    between atoms: _342  and  _345
REMARK  137  A    between atoms: _345  and  _346
REMARK  138  A    between atoms: _349  and  _351
REMARK  139  A    between atoms: _351  and  _352
REMARK  140  A    between atoms: _351  and  _354
REMARK  141  A    between atoms: _354  and  _355
REMARK  142  A    between atoms: _360  and  _362
REMARK  143  A    between atoms: _362  and  _363
REMARK  144  A    between atoms: _362  and  _365
REMARK  145  A    between atoms: _365  and  _366
REMARK  146  A    between atoms: _376  and  _378
REMARK  147  A    between atoms: _378  and  _379
REMARK  148  A    between atoms: _378  and  _381
REMARK  149  A    between atoms: _381  and  _382
REMARK  150  A    between atoms: _388  and  _390
REMARK  151  A    between atoms: _390  and  _391
REMARK  152  A    between atoms: _390  and  _393
REMARK  153  A    between atoms: _393  and  _394
REMARK  154  A    between atoms: _397  and  _399
REMARK  155  A    between atoms: _399  and  _400
REMARK  156  A    between atoms: _399  and  _402
REMARK  157  A    between atoms: _402  and  _403
REMARK  158  A    between atoms: _406  and  _408
REMARK  159  A    between atoms: _408  and  _409
REMARK  160  A    between atoms: _408  and  _411
REMARK  161  A    between atoms: _411  and  _412
REMARK  162  A    between atoms: _412  and  _413
REMARK  163  A    between atoms: _413  and  _414
REMARK  164  A    between atoms: _423  and  _425
REMARK  165  A    between atoms: _425  and  _426
REMARK  166  A    between atoms: _425  and  _428
REMARK  167  A    between atoms: _428  and  _429
REMARK  168  A    between atoms: _434  and  _436
REMARK  169  A    between atoms: _436  and  _437
REMARK  170  A    between atoms: _436  and  _439
REMARK  171  A    between atoms: _439  and  _440
REMARK  172  A    between atoms: _440  and  _441
REMARK  173  A    between atoms: _441  and  _442
REMARK  174  A    between atoms: _451  and  _453
REMARK  175  A    between atoms: _453  and  _454
REMARK  176  A    between atoms: _457  and  _459
REMARK  177  A    between atoms: _459  and  _460
REMARK  178  A    between atoms: _462  and  _464
REMARK  179  A    between atoms: _464  and  _465
REMARK  180  A    between atoms: _464  and  _467
REMARK  181  A    between atoms: _467  and  _468
REMARK  182  A    between atoms: _478  and  _480
REMARK  183  A    between atoms: _480  and  _481
REMARK  184  A    between atoms: _480  and  _483
REMARK  185  A    between atoms: _483  and  _484
REMARK  186  A    between atoms: _485  and  _487
REMARK  187  A    between atoms: _487  and  _488
REMARK  188  A    between atoms: _491  and  _493
REMARK  189  A    between atoms: _493  and  _494
REMARK  190  A    between atoms: _493  and  _496
REMARK  191  A    between atoms: _496  and  _497
REMARK  192  A    between atoms: _500  and  _502
REMARK  193  A    between atoms: _502  and  _503
REMARK  194  A    between atoms: _502  and  _505
REMARK  195  A    between atoms: _505  and  _506
REMARK  196  A    between atoms: _511  and  _512
REMARK  197  A    between atoms: _514  and  _516
REMARK  198  A    between atoms: _516  and  _517
REMARK  199  A    between atoms: _516  and  _519
REMARK  200  A    between atoms: _519  and  _520
REMARK  201  A    between atoms: _522  and  _524
REMARK  202  A    between atoms: _524  and  _525
REMARK  203  A    between atoms: _524  and  _527
REMARK  204  A    between atoms: _527  and  _528
REMARK  205  A    between atoms: _534  and  _536
REMARK  206  A    between atoms: _536  and  _537
REMARK  207  A    between atoms: _536  and  _539
REMARK  208  A    between atoms: _539  and  _540
REMARK  209  A    between atoms: _543  and  _545
REMARK  210  A    between atoms: _545  and  _546
REMARK  211  A    between atoms: _545  and  _548
REMARK  212  A    between atoms: _548  and  _549
REMARK  213  A    between atoms: _551  and  _553
REMARK  214  A    between atoms: _553  and  _554
REMARK  215  A    between atoms: _553  and  _556
REMARK  216  A    between atoms: _556  and  _557
REMARK  217  A    between atoms: _559  and  _561
REMARK  218  A    between atoms: _561  and  _562
REMARK  219  A    between atoms: _561  and  _564
REMARK  220  A    between atoms: _564  and  _565
REMARK  221  A    between atoms: _570  and  _572
REMARK  222  A    between atoms: _572  and  _573
REMARK  223  A    between atoms: _572  and  _575
REMARK  224  A    between atoms: _575  and  _576
REMARK  225  A    between atoms: _581  and  _583
REMARK  226  A    between atoms: _583  and  _584
REMARK  227  A    between atoms: _583  and  _586
REMARK  228  A    between atoms: _586  and  _587
REMARK  229  A    between atoms: _590  and  _592
REMARK  230  A    between atoms: _592  and  _593
REMARK  231  A    between atoms: _596  and  _598
REMARK  232  A    between atoms: _598  and  _599
REMARK  233  A    between atoms: _598  and  _601
REMARK  234  A    between atoms: _601  and  _602
REMARK  235  A    between atoms: _607  and  _608
REMARK  236  A    between atoms: _610  and  _612
REMARK  237  A    between atoms: _612  and  _613
REMARK  238  A    between atoms: _612  and  _615
REMARK  239  A    between atoms: _615  and  _616
REMARK  240  A    between atoms: _621  and  _622
REMARK  241  A    between atoms: _624  and  _626
REMARK  242  A    between atoms: _626  and  _627
REMARK  243  A    between atoms: _626  and  _629
REMARK  244  A    between atoms: _632  and  _634
REMARK  245  A    between atoms: _634  and  _635
REMARK  246  A    between atoms: _634  and  _637
REMARK  247  A    between atoms: _637  and  _638
REMARK  248  A    between atoms: _643  and  _645
REMARK  249  A    between atoms: _645  and  _646
REMARK  250  A    between atoms: _649  and  _651
REMARK  251  A    between atoms: _651  and  _652
REMARK  252  A    between atoms: _651  and  _654
REMARK  253  A    between atoms: _654  and  _655
REMARK  254  A    between atoms: _655  and  _656
REMARK  255  A    between atoms: _656  and  _657
REMARK  256  A    between atoms: _666  and  _668
REMARK  257  A    between atoms: _668  and  _669
REMARK  258  A    between atoms: _668  and  _671
REMARK  259  A    between atoms: _671  and  _672
REMARK  260  A    between atoms: _675  and  _677
REMARK  261  A    between atoms: _677  and  _678
REMARK  262  A    between atoms: _677  and  _680
REMARK  263  A    between atoms: _680  and  _681
REMARK  264  A    between atoms: _684  and  _686
REMARK  265  A    between atoms: _686  and  _687
REMARK  266  A    between atoms: _686  and  _689
REMARK  267  A    between atoms: _689  and  _690
REMARK                            x       y       z     vdW  Elec       q    Type
REMARK                         _______ _______ _______ _____ _____    ______ ____
ROOT
ATOM      1  O   HOH     1      12.475  27.094  23.301  0.00  0.00    +0.000 OA
ENDROOT
TORSDOF 0
REMARK  Name = ../refined-set-2016/2olb/2olb_pocket.pdb
REMARK  267 active torsions:
REMARK  status: ('A' for Active; 'I' for Inactive)
REMARK    1  A    between atoms: _1  and  _3
REMARK    2  A    between atoms: _3  and  _4
REMARK    3  A    between atoms: _3  and  _6
REMARK    4  A    between atoms: _6  and  _7
REMARK    5  A    between atoms: _12  and  _14
REMARK    6  A    between atoms: _14  and  _15
REMARK    7  A    between atoms: _17  and  _19
REMARK    8  A    between atoms: _19  and  _20
REMARK    9  A    between atoms: _19  and  _22
REMARK   10  A    between atoms: _22  and  _23
REMARK   11  A    between atoms: _23  and  _24
REMARK   12  A    between atoms: _29  and  _31
REMARK   13  A    between atoms: _31  and  _32
REMARK   14  A    between atoms: _31  and  _34
REMARK   15  A    between atoms: _34  and  _35
REMARK   16  A    between atoms: _38  and  _40
REMARK   17  A    between atoms: _40  and  _41
REMARK   18  A    between atoms: _40  and  _43
REMARK   19  A    between atoms: _43  and  _44
REMARK   20  A    between atoms: _44  and  _45
REMARK   21  A    between atoms: _48  and  _50
REMARK   22  A    between atoms: _50  and  _51
REMARK   23  A    between atoms: _53  and  _55
REMARK   24  A    between atoms: _55  and  _56
REMARK   25  A    between atoms: _55  and  _58
REMARK   26  A    between atoms: _62  and  _63
REMARK   27  A    between atoms: _68  and  _70
REMARK   28  A    between atoms: _70  and  _71
REMARK   29  A    between atoms: _70  and  _73
REMARK   30  A    between atoms: _73  and  _74
REMARK   31  A    between atoms: _74  and  _75
REMARK   32  A    between atoms: _78  and  _80
REMARK   33  A    between atoms: _80  and  _81
REMARK   34  A    between atoms: _80  and  _83
REMARK   35  A    between atoms: _83  and  _84
REMARK   36  A    between atoms: _86  and  _88
REMARK   37  A    between atoms: _88  and  _89
REMARK   38  A    between atoms: _88  and  _91
REMARK   39  A    between atoms: _91  and  _92
REMARK   40  A    between atoms: _97  and  _99
REMARK   41  A    between atoms: _99  and  _100
REMARK   42  A    between atoms: _99  and  _102
REMARK   43  A    between atoms: _102  and  _103
REMARK   44  A    between atoms: _103  and  _104
REMARK   45  A    between atoms: _104  and  _105
REMARK   46  A    between atoms: _115  and  _116
REMARK   47  A    between atoms: _121  and  _123
REMARK   48  A    between atoms: _123  and  _124
REMARK   49  A    between atoms: _123  and  _126
REMARK   50  A    between atoms: _126  and  _127
REMARK   51  A    between atoms: _132  and  _133
REMARK   52  A    between atoms: _135  and  _137
REMARK   53  A    between atoms: _137  and  _138
REMARK   54  A    between atoms: _137  and  _140
REMARK   55  A    between atoms: _140  and  _141
REMARK   56  A    between atoms: _146  and  _147
REMARK   57  A    between atoms: _149  and  _151
REMARK   58  A    between atoms: _151  and  _152
REMARK   59  A    between atoms: _151  and  _154
REMARK   60  A    between atoms: _157  and  _159
REMARK   61  A    between atoms: _159  and  _160
REMARK   62  A    between atoms: _159  and  _162
REMARK   63  A    between atoms: _162  and  _163
REMARK   64  A    between atoms: _169  and  _170
REMARK   65  A    between atoms: _175  and  _177
REMARK   66  A    between atoms: _177  and  _178
REMARK   67  A    between atoms: _177  and  _180
REMARK   68  A    between atoms: _180  and  _181
REMARK   69  A    between atoms: _183  and  _185
REMARK   70  A    between atoms: _185  and  _186
REMARK   71  A    between atoms: _185  and  _188
REMARK   72  A    between atoms: _188  and  _189
REMARK   73  A    between atoms: _189  and  _190
REMARK   74  A    between atoms: _193  and  _195
REMARK   75  A    between atoms: _195  and  _196
REMARK   76  A    between atoms: _195  and  _198
REMARK   77  A    between atoms: _198  and  _199
REMARK   78  A    between atoms: _204  and  _205
REMARK   79  A    between atoms: _207  and  _209
REMARK   80  A    between atoms: _209  and  _210
REMARK   81  A    between atoms: _209  and  _212
REMARK   82  A    between atoms: _212  and  _213
REMARK   83  A    between atoms: _218  and  _220
REMARK   84  A    between atoms: _220  and  _221
REMARK   85  A    between atoms: _220  and  _223
REMARK   86  A    between atoms: _223  and  _224
REMARK   87  A    between atoms: _229  and  _231
REMARK   88  A    between atoms: _231  and  _232
REMARK   89  A    between atoms: _231  and  _234
REMARK   90  A    between atoms: _234  and  _235
REMARK   91  A    between atoms: _235  and  _236
REMARK   92  A    between atoms: _238  and  _240
REMARK   93  A    between atoms: _240  and  _241
REMARK   94  A    between atoms: _240  and  _243
REMARK   95  A    between atoms: _243  and  _244
REMARK   96  A    between atoms: _249  and  _250
REMARK   97  A    between atoms: _252  and  _254
REMARK   98  A    between atoms: _254  and  _255
REMARK   99  A    between atoms: _254  and  _257
REMARK  100  A    between atoms: _257  and  _258
REMARK  101  A    between atoms: _261  and  _263
REMARK  102  A    between atoms: _263  and  _264
REMARK  103  A    between atoms: _263  and  _266
REMARK  104  A    between atoms: _266  and  _267
REMARK  105  A    between atoms: _267  and  _484
REMARK  106  A    between atoms: _268  and  _270
REMARK  107  A    between atoms: _270  and  _271
REMARK  108  A    between atoms: _270  and  _273
REMARK  109  A    between atoms: _273  and  _274
REMARK  110  A    between atoms: _277  and  _279
REMARK  111  A    between atoms: _279  and  _280
REMARK  112  A    between atoms: _279  and  _282
REMARK  113  A    between atoms: _282  and  _283
REMARK  114  A    between atoms: _288  and  _289
REMARK  115  A    between atoms: _291  and  _293
REMARK  116  A    between atoms: _293  and  _294
REMARK  117  A    between atoms: _293  and  _296
REMARK  118  A    between atoms: _296  and  _297
REMARK  119  A    between atoms: _302  and  _303
REMARK  120  A    between atoms: _305  and  _307
REMARK  121  A    between atoms: _307  and  _308
REMARK  122  A    between atoms: _307  and  _310
REMARK  123  A    between atoms: _310  and  _311
REMARK  124  A    between atoms: _311  and  _312
REMARK  125  A    between atoms: _315  and  _317
REMARK  126  A    between atoms: _317  and  _318
REMARK  127  A    between atoms: _317  and  _320
REMARK  128  A    between atoms: _320  and  _321
REMARK  129  A    between atoms: _326  and  _327
REMARK  130  A    between atoms: _329  and  _331
REMARK  131  A    between atoms: _331  and  _332
REMARK  132  A    between atoms: _331  and  _334
REMARK  133  A    between atoms: _334  and  _335
REMARK  134  A    between atoms: _340  and  _342
REMARK  135  A    between atoms: _342  and  _343
REMARK  136  A    between atoms: _342  and  _345
REMARK  137  A    between atoms: _345  and  _346
REMARK  138  A    between atoms: _349  and  _351
REMARK  139  A    between atoms: _351  and  _352
REMARK  140  A    between atoms: _351  and  _354
REMARK  141  A    between atoms: _354  and  _355
REMARK  142  A    between atoms: _360  and  _362
REMARK  143  A    between atoms: _362  and  _363
REMARK  144  A    between atoms: _362  and  _365
REMARK  145  A    between atoms: _365  and  _366
REMARK  146  A    between atoms: _376  and  _378
REMARK  147  A    between atoms: _378  and  _379
REMARK  148  A    between atoms: _378  and  _381
REMARK  149  A    between atoms: _381  and  _382
REMARK  150  A    between atoms: _388  and  _390
REMARK  151  A    between atoms: _390  and  _391
REMARK  152  A    between atoms: _390  and  _393
REMARK  153  A    between atoms: _393  and  _394
REMARK  154  A    between atoms: _397  and  _399
REMARK  155  A    between atoms: _399  and  _400
REMARK  156  A    between atoms: _399  and  _402
REMARK  157  A    between atoms: _402  and  _403
REMARK  158  A    between atoms: _406  and  _408
REMARK  159  A    between atoms: _408  and  _409
REMARK  160  A    between atoms: _408  and  _411
REMARK  161  A    between atoms: _411  and  _412
REMARK  162  A    between atoms: _412  and  _413
REMARK  163  A    between atoms: _413  and  _414
REMARK  164  A    between atoms: _423  and  _425
REMARK  165  A    between atoms: _425  and  _426
REMARK  166  A    between atoms: _425  and  _428
REMARK  167  A    between atoms: _428  and  _429
REMARK  168  A    between atoms: _434  and  _436
REMARK  169  A    between atoms: _436  and  _437
REMARK  170  A    between atoms: _436  and  _439
REMARK  171  A    between atoms: _439  and  _440
REMARK  172  A    between atoms: _440  and  _441
REMARK  173  A    between atoms: _441  and  _442
REMARK  174  A    between atoms: _451  and  _453
REMARK  175  A    between atoms: _453  and  _454
REMARK  176  A    between atoms: _457  and  _459
REMARK  177  A    between atoms: _459  and  _460
REMARK  178  A    between atoms: _462  and  _464
REMARK  179  A    between atoms: _464  and  _465
REMARK  180  A    between atoms: _464  and  _467
REMARK  181  A    between atoms: _467  and  _468
REMARK  182  A    between atoms: _478  and  _480
REMARK  183  A    between atoms: _480  and  _481
REMARK  184  A    between atoms: _480  and  _483
REMARK  185  A    between atoms: _483  and  _484
REMARK  186  A    between atoms: _485  and  _487
REMARK  187  A    between atoms: _487  and  _488
REMARK  188  A    between atoms: _491  and  _493
REMARK  189  A    between atoms: _493  and  _494
REMARK  190  A    between atoms: _493  and  _496
REMARK  191  A    between atoms: _496  and  _497
REMARK  192  A    between atoms: _500  and  _502
REMARK  193  A    between atoms: _502  and  _503
REMARK  194  A    between atoms: _502  and  _505
REMARK  195  A    between atoms: _505  and  _506
REMARK  196  A    between atoms: _511  and  _512
REMARK  197  A    between atoms: _514  and  _516
REMARK  198  A    between atoms: _516  and  _517
REMARK  199  A    between atoms: _516  and  _519
REMARK  200  A    between atoms: _519  and  _520
REMARK  201  A    between atoms: _522  and  _524
REMARK  202  A    between atoms: _524  and  _525
REMARK  203  A    between atoms: _524  and  _527
REMARK  204  A    between atoms: _527  and  _528
REMARK  205  A    between atoms: _534  and  _536
REMARK  206  A    between atoms: _536  and  _537
REMARK  207  A    between atoms: _536  and  _539
REMARK  208  A    between atoms: _539  and  _540
REMARK  209  A    between atoms: _543  and  _545
REMARK  210  A    between atoms: _545  and  _546
REMARK  211  A    between atoms: _545  and  _548
REMARK  212  A    between atoms: _548  and  _549
REMARK  213  A    between atoms: _551  and  _553
REMARK  214  A    between atoms: _553  and  _554
REMARK  215  A    between atoms: _553  and  _556
REMARK  216  A    between atoms: _556  and  _557
REMARK  217  A    between atoms: _559  and  _561
REMARK  218  A    between atoms: _561  and  _562
REMARK  219  A    between atoms: _561  and  _564
REMARK  220  A    between atoms: _564  and  _565
REMARK  221  A    between atoms: _570  and  _572
REMARK  222  A    between atoms: _572  and  _573
REMARK  223  A    between atoms: _572  and  _575
REMARK  224  A    between atoms: _575  and  _576
REMARK  225  A    between atoms: _581  and  _583
REMARK  226  A    between atoms: _583  and  _584
REMARK  227  A    between atoms: _583  and  _586
REMARK  228  A    between atoms: _586  and  _587
REMARK  229  A    between atoms: _590  and  _592
REMARK  230  A    between atoms: _592  and  _593
REMARK  231  A    between atoms: _596  and  _598
REMARK  232  A    between atoms: _598  and  _599
REMARK  233  A    between atoms: _598  and  _601
REMARK  234  A    between atoms: _601  and  _602
REMARK  235  A    between atoms: _607  and  _608
REMARK  236  A    between atoms: _610  and  _612
REMARK  237  A    between atoms: _612  and  _613
REMARK  238  A    between atoms: _612  and  _615
REMARK  239  A    between atoms: _615  and  _616
REMARK  240  A    between atoms: _621  and  _622
REMARK  241  A    between atoms: _624  and  _626
REMARK  242  A    between atoms: _626  and  _627
REMARK  243  A    between atoms: _626  and  _629
REMARK  244  A    between atoms: _632  and  _634
REMARK  245  A    between atoms: _634  and  _635
REMARK  246  A    between atoms: _634  and  _637
REMARK  247  A    between atoms: _637  and  _638
REMARK  248  A    between atoms: _643  and  _645
REMARK  249  A    between atoms: _645  and  _646
REMARK  250  A    between atoms: _649  and  _651
REMARK  251  A    between atoms: _651  and  _652
REMARK  252  A    between atoms: _651  and  _654
REMARK  253  A    between atoms: _654  and  _655
REMARK  254  A    between atoms: _655  and  _656
REMARK  255  A    between atoms: _656  and  _657
REMARK  256  A    between atoms: _666  and  _668
REMARK  257  A    between atoms: _668  and  _669
REMARK  258  A    between atoms: _668  and  _671
REMARK  259  A    between atoms: _671  and  _672
REMARK  260  A    between atoms: _675  and  _677
REMARK  261  A    between atoms: _677  and  _678
REMARK  262  A    between atoms: _677  and  _680
REMARK  263  A    between atoms: _680  and  _681
REMARK  264  A    between atoms: _684  and  _686
REMARK  265  A    between atoms: _686  and  _687
REMARK  266  A    between atoms: _686  and  _689
REMARK  267  A    between atoms: _689  and  _690
REMARK                            x       y       z     vdW  Elec       q    Type
REMARK                         _______ _______ _______ _____ _____    ______ ____
ROOT
ATOM      1  O   HOH     1      -7.925  13.851  16.536  0.00  0.00    +0.000 OA
ENDROOT
TORSDOF 0
REMARK  Name = ../refined-set-2016/2olb/2olb_pocket.pdb
REMARK  267 active torsions:
REMARK  status: ('A' for Active; 'I' for Inactive)
REMARK    1  A    between atoms: _1  and  _3
REMARK    2  A    between atoms: _3  and  _4
REMARK    3  A    between atoms: _3  and  _6
REMARK    4  A    between atoms: _6  and  _7
REMARK    5  A    between atoms: _12  and  _14
REMARK    6  A    between atoms: _14  and  _15
REMARK    7  A    between atoms: _17  and  _19
REMARK    8  A    between atoms: _19  and  _20
REMARK    9  A    between atoms: _19  and  _22
REMARK   10  A    between atoms: _22  and  _23
REMARK   11  A    between atoms: _23  and  _24
REMARK   12  A    between atoms: _29  and  _31
REMARK   13  A    between atoms: _31  and  _32
REMARK   14  A    between atoms: _31  and  _34
REMARK   15  A    between atoms: _34  and  _35
REMARK   16  A    between atoms: _38  and  _40
REMARK   17  A    between atoms: _40  and  _41
REMARK   18  A    between atoms: _40  and  _43
REMARK   19  A    between atoms: _43  and  _44
REMARK   20  A    between atoms: _44  and  _45
REMARK   21  A    between atoms: _48  and  _50
REMARK   22  A    between atoms: _50  and  _51
REMARK   23  A    between atoms: _53  and  _55
REMARK   24  A    between atoms: _55  and  _56
REMARK   25  A    between atoms: _55  and  _58
REMARK   26  A    between atoms: _62  and  _63
REMARK   27  A    between atoms: _68  and  _70
REMARK   28  A    between atoms: _70  and  _71
REMARK   29  A    between atoms: _70  and  _73
REMARK   30  A    between atoms: _73  and  _74
REMARK   31  A    between atoms: _74  and  _75
REMARK   32  A    between atoms: _78  and  _80
REMARK   33  A    between atoms: _80  and  _81
REMARK   34  A    between atoms: _80  and  _83
REMARK   35  A    between atoms: _83  and  _84
REMARK   36  A    between atoms: _86  and  _88
REMARK   37  A    between atoms: _88  and  _89
REMARK   38  A    between atoms: _88  and  _91
REMARK   39  A    between atoms: _91  and  _92
REMARK   40  A    between atoms: _97  and  _99
REMARK   41  A    between atoms: _99  and  _100
REMARK   42  A    between atoms: _99  and  _102
REMARK   43  A    between atoms: _102  and  _103
REMARK   44  A    between atoms: _103  and  _104
REMARK   45  A    between atoms: _104  and  _105
REMARK   46  A    between atoms: _115  and  _116
REMARK   47  A    between atoms: _121  and  _123
REMARK   48  A    between atoms: _123  and  _124
REMARK   49  A    between atoms: _123  and  _126
REMARK   50  A    between atoms: _126  and  _127
REMARK   51  A    between atoms: _132  and  _133
REMARK   52  A    between atoms: _135  and  _137
REMARK   53  A    between atoms: _137  and  _138
REMARK   54  A    between atoms: _137  and  _140
REMARK   55  A    between atoms: _140  and  _141
REMARK   56  A    between atoms: _146  and  _147
REMARK   57  A    between atoms: _149  and  _151
REMARK   58  A    between atoms: _151  and  _152
REMARK   59  A    between atoms: _151  and  _154
REMARK   60  A    between atoms: _157  and  _159
REMARK   61  A    between atoms: _159  and  _160
REMARK   62  A    between atoms: _159  and  _162
REMARK   63  A    between atoms: _162  and  _163
REMARK   64  A    between atoms: _169  and  _170
REMARK   65  A    between atoms: _175  and  _177
REMARK   66  A    between atoms: _177  and  _178
REMARK   67  A    between atoms: _177  and  _180
REMARK   68  A    between atoms: _180  and  _181
REMARK   69  A    between atoms: _183  and  _185
REMARK   70  A    between atoms: _185  and  _186
REMARK   71  A    between atoms: _185  and  _188
REMARK   72  A    between atoms: _188  and  _189
REMARK   73  A    between atoms: _189  and  _190
REMARK   74  A    between atoms: _193  and  _195
REMARK   75  A    between atoms: _195  and  _196
REMARK   76  A    between atoms: _195  and  _198
REMARK   77  A    between atoms: _198  and  _199
REMARK   78  A    between atoms: _204  and  _205
REMARK   79  A    between atoms: _207  and  _209
REMARK   80  A    between atoms: _209  and  _210
REMARK   81  A    between atoms: _209  and  _212
REMARK   82  A    between atoms: _212  and  _213
REMARK   83  A    between atoms: _218  and  _220
REMARK   84  A    between atoms: _220  and  _221
REMARK   85  A    between atoms: _220  and  _223
REMARK   86  A    between atoms: _223  and  _224
REMARK   87  A    between atoms: _229  and  _231
REMARK   88  A    between atoms: _231  and  _232
REMARK   89  A    between atoms: _231  and  _234
REMARK   90  A    between atoms: _234  and  _235
REMARK   91  A    between atoms: _235  and  _236
REMARK   92  A    between atoms: _238  and  _240
REMARK   93  A    between atoms: _240  and  _241
REMARK   94  A    between atoms: _240  and  _243
REMARK   95  A    between atoms: _243  and  _244
REMARK   96  A    between atoms: _249  and  _250
REMARK   97  A    between atoms: _252  and  _254
REMARK   98  A    between atoms: _254  and  _255
REMARK   99  A    between atoms: _254  and  _257
REMARK  100  A    between atoms: _257  and  _258
REMARK  101  A    between atoms: _261  and  _263
REMARK  102  A    between atoms: _263  and  _264
REMARK  103  A    between atoms: _263  and  _266
REMARK  104  A    between atoms: _266  and  _267
REMARK  105  A    between atoms: _267  and  _484
REMARK  106  A    between atoms: _268  and  _270
REMARK  107  A    between atoms: _270  and  _271
REMARK  108  A    between atoms: _270  and  _273
REMARK  109  A    between atoms: _273  and  _274
REMARK  110  A    between atoms: _277  and  _279
REMARK  111  A    between atoms: _279  and  _280
REMARK  112  A    between atoms: _279  and  _282
REMARK  113  A    between atoms: _282  and  _283
REMARK  114  A    between atoms: _288  and  _289
REMARK  115  A    between atoms: _291  and  _293
REMARK  116  A    between atoms: _293  and  _294
REMARK  117  A    between atoms: _293  and  _296
REMARK  118  A    between atoms: _296  and  _297
REMARK  119  A    between atoms: _302  and  _303
REMARK  120  A    between atoms: _305  and  _307
REMARK  121  A    between atoms: _307  and  _308
REMARK  122  A    between atoms: _307  and  _310
REMARK  123  A    between atoms: _310  and  _311
REMARK  124  A    between atoms: _311  and  _312
REMARK  125  A    between atoms: _315  and  _317
REMARK  126  A    between atoms: _317  and  _318
REMARK  127  A    between atoms: _317  and  _320
REMARK  128  A    between atoms: _320  and  _321
REMARK  129  A    between atoms: _326  and  _327
REMARK  130  A    between atoms: _329  and  _331
REMARK  131  A    between atoms: _331  and  _332
REMARK  132  A    between atoms: _331  and  _334
REMARK  133  A    between atoms: _334  and  _335
REMARK  134  A    between atoms: _340  and  _342
REMARK  135  A    between atoms: _342  and  _343
REMARK  136  A    between atoms: _342  and  _345
REMARK  137  A    between atoms: _345  and  _346
REMARK  138  A    between atoms: _349  and  _351
REMARK  139  A    between atoms: _351  and  _352
REMARK  140  A    between atoms: _351  and  _354
REMARK  141  A    between atoms: _354  and  _355
REMARK  142  A    between atoms: _360  and  _362
REMARK  143  A    between atoms: _362  and  _363
REMARK  144  A    between atoms: _362  and  _365
REMARK  145  A    between atoms: _365  and  _366
REMARK  146  A    between atoms: _376  and  _378
REMARK  147  A    between atoms: _378  and  _379
REMARK  148  A    between atoms: _378  and  _381
REMARK  149  A    between atoms: _381  and  _382
REMARK  150  A    between atoms: _388  and  _390
REMARK  151  A    between atoms: _390  and  _391
REMARK  152  A    between atoms: _390  and  _393
REMARK  153  A    between atoms: _393  and  _394
REMARK  154  A    between atoms: _397  and  _399
REMARK  155  A    between atoms: _399  and  _400
REMARK  156  A    between atoms: _399  and  _402
REMARK  157  A    between atoms: _402  and  _403
REMARK  158  A    between atoms: _406  and  _408
REMARK  159  A    between atoms: _408  and  _409
REMARK  160  A    between atoms: _408  and  _411
REMARK  161  A    between atoms: _411  and  _412
REMARK  162  A    between atoms: _412  and  _413
REMARK  163  A    between atoms: _413  and  _414
REMARK  164  A    between atoms: _423  and  _425
REMARK  165  A    between atoms: _425  and  _426
REMARK  166  A    between atoms: _425  and  _428
REMARK  167  A    between atoms: _428  and  _429
REMARK  168  A    between atoms: _434  and  _436
REMARK  169  A    between atoms: _436  and  _437
REMARK  170  A    between atoms: _436  and  _439
REMARK  171  A    between atoms: _439  and  _440
REMARK  172  A    between atoms: _440  and  _441
REMARK  173  A    between atoms: _441  and  _442
REMARK  174  A    between atoms: _451  and  _453
REMARK  175  A    between atoms: _453  and  _454
REMARK  176  A    between atoms: _457  and  _459
REMARK  177  A    between atoms: _459  and  _460
REMARK  178  A    between atoms: _462  and  _464
REMARK  179  A    between atoms: _464  and  _465
REMARK  180  A    between atoms: _464  and  _467
REMARK  181  A    between atoms: _467  and  _468
REMARK  182  A    between atoms: _478  and  _480
REMARK  183  A    between atoms: _480  and  _481
REMARK  184  A    between atoms: _480  and  _483
REMARK  185  A    between atoms: _483  and  _484
REMARK  186  A    between atoms: _485  and  _487
REMARK  187  A    between atoms: _487  and  _488
REMARK  188  A    between atoms: _491  and  _493
REMARK  189  A    between atoms: _493  and  _494
REMARK  190  A    between atoms: _493  and  _496
REMARK  191  A    between atoms: _496  and  _497
REMARK  192  A    between atoms: _500  and  _502
REMARK  193  A    between atoms: _502  and  _503
REMARK  194  A    between atoms: _502  and  _505
REMARK  195  A    between atoms: _505  and  _506
REMARK  196  A    between atoms: _511  and  _512
REMARK  197  A    between atoms: _514  and  _516
REMARK  198  A    between atoms: _516  and  _517
REMARK  199  A    between atoms: _516  and  _519
REMARK  200  A    between atoms: _519  and  _520
REMARK  201  A    between atoms: _522  and  _524
REMARK  202  A    between atoms: _524  and  _525
REMARK  203  A    between atoms: _524  and  _527
REMARK  204  A    between atoms: _527  and  _528
REMARK  205  A    between atoms: _534  and  _536
REMARK  206  A    between atoms: _536  and  _537
REMARK  207  A    between atoms: _536  and  _539
REMARK  208  A    between atoms: _539  and  _540
REMARK  209  A    between atoms: _543  and  _545
REMARK  210  A    between atoms: _545  and  _546
REMARK  211  A    between atoms: _545  and  _548
REMARK  212  A    between atoms: _548  and  _549
REMARK  213  A    between atoms: _551  and  _553
REMARK  214  A    between atoms: _553  and  _554
REMARK  215  A    between atoms: _553  and  _556
REMARK  216  A    between atoms: _556  and  _557
REMARK  217  A    between atoms: _559  and  _561
REMARK  218  A    between atoms: _561  and  _562
REMARK  219  A    between atoms: _561  and  _564
REMARK  220  A    between atoms: _564  and  _565
REMARK  221  A    between atoms: _570  and  _572
REMARK  222  A    between atoms: _572  and  _573
REMARK  223  A    between atoms: _572  and  _575
REMARK  224  A    between atoms: _575  and  _576
REMARK  225  A    between atoms: _581  and  _583
REMARK  226  A    between atoms: _583  and  _584
REMARK  227  A    between atoms: _583  and  _586
REMARK  228  A    between atoms: _586  and  _587
REMARK  229  A    between atoms: _590  and  _592
REMARK  230  A    between atoms: _592  and  _593
REMARK  231  A    between atoms: _596  and  _598
REMARK  232  A    between atoms: _598  and  _599
REMARK  233  A    between atoms: _598  and  _601
REMARK  234  A    between atoms: _601  and  _602
REMARK  235  A    between atoms: _607  and  _608
REMARK  236  A    between atoms: _610  and  _612
REMARK  237  A    between atoms: _612  and  _613
REMARK  238  A    between atoms: _612  and  _615
REMARK  239  A    between atoms: _615  and  _616
REMARK  240  A    between atoms: _621  and  _622
REMARK  241  A    between atoms: _624  and  _626
REMARK  242  A    between atoms: _626  and  _627
REMARK  243  A    between atoms: _626  and  _629
REMARK  244  A    between atoms: _632  and  _634
REMARK  245  A    between atoms: _634  and  _635
REMARK  246  A    between atoms: _634  and  _637
REMARK  247  A    between atoms: _637  and  _638
REMARK  248  A    between atoms: _643  and  _645
REMARK  249  A    between atoms: _645  and  _646
REMARK  250  A    between atoms: _649  and  _651
REMARK  251  A    between atoms: _651  and  _652
REMARK  252  A    between atoms: _651  and  _654
REMARK  253  A    between atoms: _654  and  _655
REMARK  254  A    between atoms: _655  and  _656
REMARK  255  A    between atoms: _656  and  _657
REMARK  256  A    between atoms: _666  and  _668
REMARK  257  A    between atoms: _668  and  _669
REMARK  258  A    between atoms: _668  and  _671
REMARK  259  A    between atoms: _671  and  _672
REMARK  260  A    between atoms: _675  and  _677
REMARK  261  A    between atoms: _677  and  _678
REMARK  262  A    between atoms: _677  and  _680
REMARK  263  A    between atoms: _680  and  _681
REMARK  264  A    between atoms: _684  and  _686
REMARK  265  A    between atoms: _686  and  _687
REMARK  266  A    between atoms: _686  and  _689
REMARK  267  A    between atoms: _689  and  _690
REMARK                            x       y       z     vdW  Elec       q    Type
REMARK                         _______ _______ _______ _____ _____    ______ ____
ROOT
ATOM      1  O   HOH     1       1.901  22.163  19.158  0.00  0.00    +0.000 OA
ENDROOT
TORSDOF 0
REMARK  Name = ../refined-set-2016/2olb/2olb_pocket.pdb
REMARK  267 active torsions:
REMARK  status: ('A' for Active; 'I' for Inactive)
REMARK    1  A    between atoms: _1  and  _3
REMARK    2  A    between atoms: _3  and  _4
REMARK    3  A    between atoms: _3  and  _6
REMARK    4  A    between atoms: _6  and  _7
REMARK    5  A    between atoms: _12  and  _14
REMARK    6  A    between atoms: _14  and  _15
REMARK    7  A    between atoms: _17  and  _19
REMARK    8  A    between atoms: _19  and  _20
REMARK    9  A    between atoms: _19  and  _22
REMARK   10  A    between atoms: _22  and  _23
REMARK   11  A    between atoms: _23  and  _24
REMARK   12  A    between atoms: _29  and  _31
REMARK   13  A    between atoms: _31  and  _32
REMARK   14  A    between atoms: _31  and  _34
REMARK   15  A    between atoms: _34  and  _35
REMARK   16  A    between atoms: _38  and  _40
REMARK   17  A    between atoms: _40  and  _41
REMARK   18  A    between atoms: _40  and  _43
REMARK   19  A    between atoms: _43  and  _44
REMARK   20  A    between atoms: _44  and  _45
REMARK   21  A    between atoms: _48  and  _50
REMARK   22  A    between atoms: _50  and  _51
REMARK   23  A    between atoms: _53  and  _55
REMARK   24  A    between atoms: _55  and  _56
REMARK   25  A    between atoms: _55  and  _58
REMARK   26  A    between atoms: _62  and  _63
REMARK   27  A    between atoms: _68  and  _70
REMARK   28  A    between atoms: _70  and  _71
REMARK   29  A    between atoms: _70  and  _73
REMARK   30  A    between atoms: _73  and  _74
REMARK   31  A    between atoms: _74  and  _75
REMARK   32  A    between atoms: _78  and  _80
REMARK   33  A    between atoms: _80  and  _81
REMARK   34  A    between atoms: _80  and  _83
REMARK   35  A    between atoms: _83  and  _84
REMARK   36  A    between atoms: _86  and  _88
REMARK   37  A    between atoms: _88  and  _89
REMARK   38  A    between atoms: _88  and  _91
REMARK   39  A    between atoms: _91  and  _92
REMARK   40  A    between atoms: _97  and  _99
REMARK   41  A    between atoms: _99  and  _100
REMARK   42  A    between atoms: _99  and  _102
REMARK   43  A    between atoms: _102  and  _103
REMARK   44  A    between atoms: _103  and  _104
REMARK   45  A    between atoms: _104  and  _105
REMARK   46  A    between atoms: _115  and  _116
REMARK   47  A    between atoms: _121  and  _123
REMARK   48  A    between atoms: _123  and  _124
REMARK   49  A    between atoms: _123  and  _126
REMARK   50  A    between atoms: _126  and  _127
REMARK   51  A    between atoms: _132  and  _133
REMARK   52  A    between atoms: _135  and  _137
REMARK   53  A    between atoms: _137  and  _138
REMARK   54  A    between atoms: _137  and  _140
REMARK   55  A    between atoms: _140  and  _141
REMARK   56  A    between atoms: _146  and  _147
REMARK   57  A    between atoms: _149  and  _151
REMARK   58  A    between atoms: _151  and  _152
REMARK   59  A    between atoms: _151  and  _154
REMARK   60  A    between atoms: _157  and  _159
REMARK   61  A    between atoms: _159  and  _160
REMARK   62  A    between atoms: _159  and  _162
REMARK   63  A    between atoms: _162  and  _163
REMARK   64  A    between atoms: _169  and  _170
REMARK   65  A    between atoms: _175  and  _177
REMARK   66  A    between atoms: _177  and  _178
REMARK   67  A    between atoms: _177  and  _180
REMARK   68  A    between atoms: _180  and  _181
REMARK   69  A    between atoms: _183  and  _185
REMARK   70  A    between atoms: _185  and  _186
REMARK   71  A    between atoms: _185  and  _188
REMARK   72  A    between atoms: _188  and  _189
REMARK   73  A    between atoms: _189  and  _190
REMARK   74  A    between atoms: _193  and  _195
REMARK   75  A    between atoms: _195  and  _196
REMARK   76  A    between atoms: _195  and  _198
REMARK   77  A    between atoms: _198  and  _199
REMARK   78  A    between atoms: _204  and  _205
REMARK   79  A    between atoms: _207  and  _209
REMARK   80  A    between atoms: _209  and  _210
REMARK   81  A    between atoms: _209  and  _212
REMARK   82  A    between atoms: _212  and  _213
REMARK   83  A    between atoms: _218  and  _220
REMARK   84  A    between atoms: _220  and  _221
REMARK   85  A    between atoms: _220  and  _223
REMARK   86  A    between atoms: _223  and  _224
REMARK   87  A    between atoms: _229  and  _231
REMARK   88  A    between atoms: _231  and  _232
REMARK   89  A    between atoms: _231  and  _234
REMARK   90  A    between atoms: _234  and  _235
REMARK   91  A    between atoms: _235  and  _236
REMARK   92  A    between atoms: _238  and  _240
REMARK   93  A    between atoms: _240  and  _241
REMARK   94  A    between atoms: _240  and  _243
REMARK   95  A    between atoms: _243  and  _244
REMARK   96  A    between atoms: _249  and  _250
REMARK   97  A    between atoms: _252  and  _254
REMARK   98  A    between atoms: _254  and  _255
REMARK   99  A    between atoms: _254  and  _257
REMARK  100  A    between atoms: _257  and  _258
REMARK  101  A    between atoms: _261  and  _263
REMARK  102  A    between atoms: _263  and  _264
REMARK  103  A    between atoms: _263  and  _266
REMARK  104  A    between atoms: _266  and  _267
REMARK  105  A    between atoms: _267  and  _484
REMARK  106  A    between atoms: _268  and  _270
REMARK  107  A    between atoms: _270  and  _271
REMARK  108  A    between atoms: _270  and  _273
REMARK  109  A    between atoms: _273  and  _274
REMARK  110  A    between atoms: _277  and  _279
REMARK  111  A    between atoms: _279  and  _280
REMARK  112  A    between atoms: _279  and  _282
REMARK  113  A    between atoms: _282  and  _283
REMARK  114  A    between atoms: _288  and  _289
REMARK  115  A    between atoms: _291  and  _293
REMARK  116  A    between atoms: _293  and  _294
REMARK  117  A    between atoms: _293  and  _296
REMARK  118  A    between atoms: _296  and  _297
REMARK  119  A    between atoms: _302  and  _303
REMARK  120  A    between atoms: _305  and  _307
REMARK  121  A    between atoms: _307  and  _308
REMARK  122  A    between atoms: _307  and  _310
REMARK  123  A    between atoms: _310  and  _311
REMARK  124  A    between atoms: _311  and  _312
REMARK  125  A    between atoms: _315  and  _317
REMARK  126  A    between atoms: _317  and  _318
REMARK  127  A    between atoms: _317  and  _320
REMARK  128  A    between atoms: _320  and  _321
REMARK  129  A    between atoms: _326  and  _327
REMARK  130  A    between atoms: _329  and  _331
REMARK  131  A    between atoms: _331  and  _332
REMARK  132  A    between atoms: _331  and  _334
REMARK  133  A    between atoms: _334  and  _335
REMARK  134  A    between atoms: _340  and  _342
REMARK  135  A    between atoms: _342  and  _343
REMARK  136  A    between atoms: _342  and  _345
REMARK  137  A    between atoms: _345  and  _346
REMARK  138  A    between atoms: _349  and  _351
REMARK  139  A    between atoms: _351  and  _352
REMARK  140  A    between atoms: _351  and  _354
REMARK  141  A    between atoms: _354  and  _355
REMARK  142  A    between atoms: _360  and  _362
REMARK  143  A    between atoms: _362  and  _363
REMARK  144  A    between atoms: _362  and  _365
REMARK  145  A    between atoms: _365  and  _366
REMARK  146  A    between atoms: _376  and  _378
REMARK  147  A    between atoms: _378  and  _379
REMARK  148  A    between atoms: _378  and  _381
REMARK  149  A    between atoms: _381  and  _382
REMARK  150  A    between atoms: _388  and  _390
REMARK  151  A    between atoms: _390  and  _391
REMARK  152  A    between atoms: _390  and  _393
REMARK  153  A    between atoms: _393  and  _394
REMARK  154  A    between atoms: _397  and  _399
REMARK  155  A    between atoms: _399  and  _400
REMARK  156  A    between atoms: _399  and  _402
REMARK  157  A    between atoms: _402  and  _403
REMARK  158  A    between atoms: _406  and  _408
REMARK  159  A    between atoms: _408  and  _409
REMARK  160  A    between atoms: _408  and  _411
REMARK  161  A    between atoms: _411  and  _412
REMARK  162  A    between atoms: _412  and  _413
REMARK  163  A    between atoms: _413  and  _414
REMARK  164  A    between atoms: _423  and  _425
REMARK  165  A    between atoms: _425  and  _426
REMARK  166  A    between atoms: _425  and  _428
REMARK  167  A    between atoms: _428  and  _429
REMARK  168  A    between atoms: _434  and  _436
REMARK  169  A    between atoms: _436  and  _437
REMARK  170  A    between atoms: _436  and  _439
REMARK  171  A    between atoms: _439  and  _440
REMARK  172  A    between atoms: _440  and  _441
REMARK  173  A    between atoms: _441  and  _442
REMARK  174  A    between atoms: _451  and  _453
REMARK  175  A    between atoms: _453  and  _454
REMARK  176  A    between atoms: _457  and  _459
REMARK  177  A    between atoms: _459  and  _460
REMARK  178  A    between atoms: _462  and  _464
REMARK  179  A    between atoms: _464  and  _465
REMARK  180  A    between atoms: _464  and  _467
REMARK  181  A    between atoms: _467  and  _468
REMARK  182  A    between atoms: _478  and  _480
REMARK  183  A    between atoms: _480  and  _481
REMARK  184  A    between atoms: _480  and  _483
REMARK  185  A    between atoms: _483  and  _484
REMARK  186  A    between atoms: _485  and  _487
REMARK  187  A    between atoms: _487  and  _488
REMARK  188  A    between atoms: _491  and  _493
REMARK  189  A    between atoms: _493  and  _494
REMARK  190  A    between atoms: _493  and  _496
REMARK  191  A    between atoms: _496  and  _497
REMARK  192  A    between atoms: _500  and  _502
REMARK  193  A    between atoms: _502  and  _503
REMARK  194  A    between atoms: _502  and  _505
REMARK  195  A    between atoms: _505  and  _506
REMARK  196  A    between atoms: _511  and  _512
REMARK  197  A    between atoms: _514  and  _516
REMARK  198  A    between atoms: _516  and  _517
REMARK  199  A    between atoms: _516  and  _519
REMARK  200  A    between atoms: _519  and  _520
REMARK  201  A    between atoms: _522  and  _524
REMARK  202  A    between atoms: _524  and  _525
REMARK  203  A    between atoms: _524  and  _527
REMARK  204  A    between atoms: _527  and  _528
REMARK  205  A    between atoms: _534  and  _536
REMARK  206  A    between atoms: _536  and  _537
REMARK  207  A    between atoms: _536  and  _539
REMARK  208  A    between atoms: _539  and  _540
REMARK  209  A    between atoms: _543  and  _545
REMARK  210  A    between atoms: _545  and  _546
REMARK  211  A    between atoms: _545  and  _548
REMARK  212  A    between atoms: _548  and  _549
REMARK  213  A    between atoms: _551  and  _553
REMARK  214  A    between atoms: _553  and  _554
REMARK  215  A    between atoms: _553  and  _556
REMARK  216  A    between atoms: _556  and  _557
REMARK  217  A    between atoms: _559  and  _561
REMARK  218  A    between atoms: _561  and  _562
REMARK  219  A    between atoms: _561  and  _564
REMARK  220  A    between atoms: _564  and  _565
REMARK  221  A    between atoms: _570  and  _572
REMARK  222  A    between atoms: _572  and  _573
REMARK  223  A    between atoms: _572  and  _575
REMARK  224  A    between atoms: _575  and  _576
REMARK  225  A    between atoms: _581  and  _583
REMARK  226  A    between atoms: _583  and  _584
REMARK  227  A    between atoms: _583  and  _586
REMARK  228  A    between atoms: _586  and  _587
REMARK  229  A    between atoms: _590  and  _592
REMARK  230  A    between atoms: _592  and  _593
REMARK  231  A    between atoms: _596  and  _598
REMARK  232  A    between atoms: _598  and  _599
REMARK  233  A    between atoms: _598  and  _601
REMARK  234  A    between atoms: _601  and  _602
REMARK  235  A    between atoms: _607  and  _608
REMARK  236  A    between atoms: _610  and  _612
REMARK  237  A    between atoms: _612  and  _613
REMARK  238  A    between atoms: _612  and  _615
REMARK  239  A    between atoms: _615  and  _616
REMARK  240  A    between atoms: _621  and  _622
REMARK  241  A    between atoms: _624  and  _626
REMARK  242  A    between atoms: _626  and  _627
REMARK  243  A    between atoms: _626  and  _629
REMARK  244  A    between atoms: _632  and  _634
REMARK  245  A    between atoms: _634  and  _635
REMARK  246  A    between atoms: _634  and  _637
REMARK  247  A    between atoms: _637  and  _638
REMARK  248  A    between atoms: _643  and  _645
REMARK  249  A    between atoms: _645  and  _646
REMARK  250  A    between atoms: _649  and  _651
REMARK  251  A    between atoms: _651  and  _652
REMARK  252  A    between atoms: _651  and  _654
REMARK  253  A    between atoms: _654  and  _655
REMARK  254  A    between atoms: _655  and  _656
REMARK  255  A    between atoms: _656  and  _657
REMARK  256  A    between atoms: _666  and  _668
REMARK  257  A    between atoms: _668  and  _669
REMARK  258  A    between atoms: _668  and  _671
REMARK  259  A    between atoms: _671  and  _672
REMARK  260  A    between atoms: _675  and  _677
REMARK  261  A    between atoms: _677  and  _678
REMARK  262  A    between atoms: _677  and  _680
REMARK  263  A    between atoms: _680  and  _681
REMARK  264  A    between atoms: _684  and  _686
REMARK  265  A    between atoms: _686  and  _687
REMARK  266  A    between atoms: _686  and  _689
REMARK  267  A    between atoms: _689  and  _690
REMARK                            x       y       z     vdW  Elec       q    Type
REMARK                         _______ _______ _______ _____ _____    ______ ____
ROOT
ATOM      1  O   HOH     1      -4.218  19.805  16.073  0.00  0.00    +0.000 OA
ENDROOT
TORSDOF 0
