REMARK  Name = ../refined-set-2016/1fzm/1fzm_pocket.pdb
REMARK  330 active torsions:
REMARK  status: ('A' for Active; 'I' for Inactive)
REMARK    1  A    between atoms: _1  and  _3
REMARK    2  A    between atoms: _3  and  _4
REMARK    3  A    between atoms: _3  and  _6
REMARK    4  A    between atoms: _6  and  _7
REMARK    5  A    between atoms: _10  and  _12
REMARK    6  A    between atoms: _12  and  _13
REMARK    7  A    between atoms: _12  and  _15
REMARK    8  A    between atoms: _15  and  _16
REMARK    9  A    between atoms: _16  and  _17
REMARK   10  A    between atoms: _17  and  _18
REMARK   11  A    between atoms: _27  and  _29
REMARK   12  A    between atoms: _29  and  _30
REMARK   13  A    between atoms: _29  and  _32
REMARK   14  A    between atoms: _32  and  _33
REMARK   15  A    between atoms: _38  and  _39
REMARK   16  A    between atoms: _41  and  _43
REMARK   17  A    between atoms: _43  and  _44
REMARK   18  A    between atoms: _43  and  _46
REMARK   19  A    between atoms: _46  and  _47
REMARK   20  A    between atoms: _53  and  _55
REMARK   21  A    between atoms: _55  and  _56
REMARK   22  A    between atoms: _55  and  _58
REMARK   23  A    between atoms: _61  and  _63
REMARK   24  A    between atoms: _63  and  _64
REMARK   25  A    between atoms: _63  and  _66
REMARK   26  A    between atoms: _66  and  _67
REMARK   27  A    between atoms: _70  and  _72
REMARK   28  A    between atoms: _72  and  _73
REMARK   29  A    between atoms: _72  and  _75
REMARK   30  A    between atoms: _75  and  _76
REMARK   31  A    between atoms: _82  and  _84
REMARK   32  A    between atoms: _84  and  _85
REMARK   33  A    between atoms: _84  and  _87
REMARK   34  A    between atoms: _87  and  _88
REMARK   35  A    between atoms: _90  and  _92
REMARK   36  A    between atoms: _92  and  _93
REMARK   37  A    between atoms: _92  and  _95
REMARK   38  A    between atoms: _98  and  _100
REMARK   39  A    between atoms: _100  and  _101
REMARK   40  A    between atoms: _100  and  _103
REMARK   41  A    between atoms: _103  and  _104
REMARK   42  A    between atoms: _110  and  _112
REMARK   43  A    between atoms: _112  and  _113
REMARK   44  A    between atoms: _112  and  _115
REMARK   45  A    between atoms: _118  and  _120
REMARK   46  A    between atoms: _120  and  _121
REMARK   47  A    between atoms: _120  and  _123
REMARK   48  A    between atoms: _123  and  _124
REMARK   49  A    between atoms: _129  and  _130
REMARK   50  A    between atoms: _132  and  _134
REMARK   51  A    between atoms: _134  and  _135
REMARK   52  A    between atoms: _134  and  _137
REMARK   53  A    between atoms: _137  and  _138
REMARK   54  A    between atoms: _138  and  _139
REMARK   55  A    between atoms: _141  and  _143
REMARK   56  A    between atoms: _143  and  _144
REMARK   57  A    between atoms: _143  and  _146
REMARK   58  A    between atoms: _146  and  _147
REMARK   59  A    between atoms: _147  and  _148
REMARK   60  A    between atoms: _151  and  _153
REMARK   61  A    between atoms: _153  and  _154
REMARK   62  A    between atoms: _156  and  _158
REMARK   63  A    between atoms: _158  and  _159
REMARK   64  A    between atoms: _158  and  _161
REMARK   65  A    between atoms: _161  and  _162
REMARK   66  A    between atoms: _162  and  _163
REMARK   67  A    between atoms: _166  and  _168
REMARK   68  A    between atoms: _168  and  _169
REMARK   69  A    between atoms: _168  and  _171
REMARK   70  A    between atoms: _171  and  _172
REMARK   71  A    between atoms: _177  and  _178
REMARK   72  A    between atoms: _180  and  _182
REMARK   73  A    between atoms: _182  and  _183
REMARK   74  A    between atoms: _182  and  _185
REMARK   75  A    between atoms: _185  and  _186
REMARK   76  A    between atoms: _196  and  _198
REMARK   77  A    between atoms: _198  and  _199
REMARK   78  A    between atoms: _198  and  _201
REMARK   79  A    between atoms: _201  and  _202
REMARK   80  A    between atoms: _202  and  _203
REMARK   81  A    between atoms: _203  and  _204
REMARK   82  A    between atoms: _213  and  _215
REMARK   83  A    between atoms: _215  and  _216
REMARK   84  A    between atoms: _215  and  _218
REMARK   85  A    between atoms: _218  and  _219
REMARK   86  A    between atoms: _219  and  _220
REMARK   87  A    between atoms: _223  and  _225
REMARK   88  A    between atoms: _225  and  _226
REMARK   89  A    between atoms: _225  and  _228
REMARK   90  A    between atoms: _228  and  _229
REMARK   91  A    between atoms: _229  and  _230
REMARK   92  A    between atoms: _235  and  _237
REMARK   93  A    between atoms: _237  and  _238
REMARK   94  A    between atoms: _237  and  _240
REMARK   95  A    between atoms: _240  and  _241
REMARK   96  A    between atoms: _241  and  _242
REMARK   97  A    between atoms: _242  and  _243
REMARK   98  A    between atoms: _243  and  _244
REMARK   99  A    between atoms: _248  and  _250
REMARK  100  A    between atoms: _250  and  _251
REMARK  101  A    between atoms: _254  and  _256
REMARK  102  A    between atoms: _256  and  _257
REMARK  103  A    between atoms: _259  and  _261
REMARK  104  A    between atoms: _261  and  _262
REMARK  105  A    between atoms: _261  and  _264
REMARK  106  A    between atoms: _264  and  _265
REMARK  107  A    between atoms: _270  and  _272
REMARK  108  A    between atoms: _272  and  _273
REMARK  109  A    between atoms: _272  and  _275
REMARK  110  A    between atoms: _275  and  _276
REMARK  111  A    between atoms: _276  and  _277
REMARK  112  A    between atoms: _280  and  _282
REMARK  113  A    between atoms: _282  and  _283
REMARK  114  A    between atoms: _282  and  _285
REMARK  115  A    between atoms: _285  and  _286
REMARK  116  A    between atoms: _288  and  _290
REMARK  117  A    between atoms: _290  and  _291
REMARK  118  A    between atoms: _290  and  _293
REMARK  119  A    between atoms: _293  and  _294
REMARK  120  A    between atoms: _300  and  _302
REMARK  121  A    between atoms: _302  and  _303
REMARK  122  A    between atoms: _302  and  _305
REMARK  123  A    between atoms: _308  and  _310
REMARK  124  A    between atoms: _310  and  _311
REMARK  125  A    between atoms: _310  and  _313
REMARK  126  A    between atoms: _313  and  _314
REMARK  127  A    between atoms: _317  and  _319
REMARK  128  A    between atoms: _319  and  _320
REMARK  129  A    between atoms: _319  and  _322
REMARK  130  A    between atoms: _322  and  _323
REMARK  131  A    between atoms: _326  and  _328
REMARK  132  A    between atoms: _328  and  _329
REMARK  133  A    between atoms: _328  and  _331
REMARK  134  A    between atoms: _331  and  _332
REMARK  135  A    between atoms: _335  and  _337
REMARK  136  A    between atoms: _337  and  _338
REMARK  137  A    between atoms: _337  and  _340
REMARK  138  A    between atoms: _340  and  _341
REMARK  139  A    between atoms: _344  and  _346
REMARK  140  A    between atoms: _346  and  _347
REMARK  141  A    between atoms: _346  and  _349
REMARK  142  A    between atoms: _349  and  _350
REMARK  143  A    between atoms: _355  and  _356
REMARK  144  A    between atoms: _358  and  _360
REMARK  145  A    between atoms: _360  and  _361
REMARK  146  A    between atoms: _360  and  _363
REMARK  147  A    between atoms: _363  and  _364
REMARK  148  A    between atoms: _369  and  _370
REMARK  149  A    between atoms: _372  and  _374
REMARK  150  A    between atoms: _374  and  _375
REMARK  151  A    between atoms: _374  and  _377
REMARK  152  A    between atoms: _377  and  _378
REMARK  153  A    between atoms: _381  and  _383
REMARK  154  A    between atoms: _383  and  _384
REMARK  155  A    between atoms: _383  and  _386
REMARK  156  A    between atoms: _386  and  _387
REMARK  157  A    between atoms: _387  and  _388
REMARK  158  A    between atoms: _393  and  _395
REMARK  159  A    between atoms: _395  and  _396
REMARK  160  A    between atoms: _395  and  _398
REMARK  161  A    between atoms: _401  and  _403
REMARK  162  A    between atoms: _403  and  _404
REMARK  163  A    between atoms: _403  and  _406
REMARK  164  A    between atoms: _406  and  _407
REMARK  165  A    between atoms: _410  and  _412
REMARK  166  A    between atoms: _412  and  _413
REMARK  167  A    between atoms: _412  and  _415
REMARK  168  A    between atoms: _415  and  _416
REMARK  169  A    between atoms: _418  and  _420
REMARK  170  A    between atoms: _420  and  _421
REMARK  171  A    between atoms: _423  and  _425
REMARK  172  A    between atoms: _425  and  _426
REMARK  173  A    between atoms: _425  and  _428
REMARK  174  A    between atoms: _428  and  _429
REMARK  175  A    between atoms: _434  and  _435
REMARK  176  A    between atoms: _437  and  _439
REMARK  177  A    between atoms: _439  and  _440
REMARK  178  A    between atoms: _439  and  _442
REMARK  179  A    between atoms: _442  and  _443
REMARK  180  A    between atoms: _443  and  _444
REMARK  181  A    between atoms: _449  and  _451
REMARK  182  A    between atoms: _451  and  _452
REMARK  183  A    between atoms: _451  and  _454
REMARK  184  A    between atoms: _454  and  _455
REMARK  185  A    between atoms: _455  and  _456
REMARK  186  A    between atoms: _461  and  _463
REMARK  187  A    between atoms: _463  and  _464
REMARK  188  A    between atoms: _463  and  _466
REMARK  189  A    between atoms: _466  and  _467
REMARK  190  A    between atoms: _472  and  _473
REMARK  191  A    between atoms: _475  and  _477
REMARK  192  A    between atoms: _477  and  _478
REMARK  193  A    between atoms: _481  and  _483
REMARK  194  A    between atoms: _483  and  _484
REMARK  195  A    between atoms: _483  and  _486
REMARK  196  A    between atoms: _486  and  _487
REMARK  197  A    between atoms: _492  and  _493
REMARK  198  A    between atoms: _495  and  _497
REMARK  199  A    between atoms: _497  and  _498
REMARK  200  A    between atoms: _497  and  _500
REMARK  201  A    between atoms: _500  and  _501
REMARK  202  A    between atoms: _506  and  _507
REMARK  203  A    between atoms: _509  and  _511
REMARK  204  A    between atoms: _511  and  _512
REMARK  205  A    between atoms: _511  and  _514
REMARK  206  A    between atoms: _514  and  _515
REMARK  207  A    between atoms: _518  and  _520
REMARK  208  A    between atoms: _520  and  _521
REMARK  209  A    between atoms: _520  and  _523
REMARK  210  A    between atoms: _523  and  _524
REMARK  211  A    between atoms: _534  and  _536
REMARK  212  A    between atoms: _536  and  _537
REMARK  213  A    between atoms: _540  and  _542
REMARK  214  A    between atoms: _542  and  _543
REMARK  215  A    between atoms: _546  and  _548
REMARK  216  A    between atoms: _548  and  _549
REMARK  217  A    between atoms: _548  and  _551
REMARK  218  A    between atoms: _551  and  _552
REMARK  219  A    between atoms: _555  and  _557
REMARK  220  A    between atoms: _557  and  _558
REMARK  221  A    between atoms: _557  and  _560
REMARK  222  A    between atoms: _560  and  _561
REMARK  223  A    between atoms: _564  and  _566
REMARK  224  A    between atoms: _566  and  _567
REMARK  225  A    between atoms: _566  and  _569
REMARK  226  A    between atoms: _569  and  _570
REMARK  227  A    between atoms: _573  and  _575
REMARK  228  A    between atoms: _575  and  _576
REMARK  229  A    between atoms: _575  and  _578
REMARK  230  A    between atoms: _578  and  _579
REMARK  231  A    between atoms: _579  and  _580
REMARK  232  A    between atoms: _580  and  _581
REMARK  233  A    between atoms: _581  and  _582
REMARK  234  A    between atoms: _586  and  _588
REMARK  235  A    between atoms: _588  and  _589
REMARK  236  A    between atoms: _588  and  _591
REMARK  237  A    between atoms: _591  and  _592
REMARK  238  A    between atoms: _597  and  _599
REMARK  239  A    between atoms: _599  and  _600
REMARK  240  A    between atoms: _599  and  _602
REMARK  241  A    between atoms: _602  and  _603
REMARK  242  A    between atoms: _603  and  _604
REMARK  243  A    between atoms: _604  and  _605
REMARK  244  A    between atoms: _605  and  _606
REMARK  245  A    between atoms: _610  and  _612
REMARK  246  A    between atoms: _612  and  _613
REMARK  247  A    between atoms: _612  and  _615
REMARK  248  A    between atoms: _615  and  _616
REMARK  249  A    between atoms: _626  and  _628
REMARK  250  A    between atoms: _628  and  _629
REMARK  251  A    between atoms: _628  and  _631
REMARK  252  A    between atoms: _631  and  _632
REMARK  253  A    between atoms: _632  and  _633
REMARK  254  A    between atoms: _636  and  _638
REMARK  255  A    between atoms: _638  and  _639
REMARK  256  A    between atoms: _642  and  _644
REMARK  257  A    between atoms: _644  and  _645
REMARK  258  A    between atoms: _647  and  _649
REMARK  259  A    between atoms: _649  and  _650
REMARK  260  A    between atoms: _649  and  _652
REMARK  261  A    between atoms: _652  and  _653
REMARK  262  A    between atoms: _653  and  _654
REMARK  263  A    between atoms: _657  and  _659
REMARK  264  A    between atoms: _659  and  _660
REMARK  265  A    between atoms: _663  and  _665
REMARK  266  A    between atoms: _665  and  _666
REMARK  267  A    between atoms: _665  and  _668
REMARK  268  A    between atoms: _668  and  _669
REMARK  269  A    between atoms: _669  and  _670
REMARK  270  A    between atoms: _673  and  _675
REMARK  271  A    between atoms: _675  and  _676
REMARK  272  A    between atoms: _675  and  _678
REMARK  273  A    between atoms: _678  and  _679
REMARK  274  A    between atoms: _679  and  _680
REMARK  275  A    between atoms: _680  and  _681
REMARK  276  A    between atoms: _690  and  _692
REMARK  277  A    between atoms: _692  and  _693
REMARK  278  A    between atoms: _692  and  _695
REMARK  279  A    between atoms: _695  and  _696
REMARK  280  A    between atoms: _699  and  _701
REMARK  281  A    between atoms: _701  and  _702
REMARK  282  A    between atoms: _701  and  _704
REMARK  283  A    between atoms: _704  and  _705
REMARK  284  A    between atoms: _705  and  _706
REMARK  285  A    between atoms: _706  and  _707
REMARK  286  A    between atoms: _716  and  _718
REMARK  287  A    between atoms: _718  and  _719
REMARK  288  A    between atoms: _722  and  _724
REMARK  289  A    between atoms: _724  and  _725
REMARK  290  A    between atoms: _724  and  _727
REMARK  291  A    between atoms: _727  and  _728
REMARK  292  A    between atoms: _733  and  _734
REMARK  293  A    between atoms: _736  and  _738
REMARK  294  A    between atoms: _738  and  _739
REMARK  295  A    between atoms: _738  and  _741
REMARK  296  A    between atoms: _741  and  _742
REMARK  297  A    between atoms: _745  and  _747
REMARK  298  A    between atoms: _747  and  _748
REMARK  299  A    between atoms: _747  and  _750
REMARK  300  A    between atoms: _750  and  _751
REMARK  301  A    between atoms: _754  and  _756
REMARK  302  A    between atoms: _756  and  _757
REMARK  303  A    between atoms: _756  and  _759
REMARK  304  A    between atoms: _761  and  _763
REMARK  305  A    between atoms: _763  and  _764
REMARK  306  A    between atoms: _763  and  _766
REMARK  307  A    between atoms: _769  and  _771
REMARK  308  A    between atoms: _771  and  _772
REMARK  309  A    between atoms: _771  and  _774
REMARK  310  A    between atoms: _774  and  _775
REMARK  311  A    between atoms: _775  and  _776
REMARK  312  A    between atoms: _779  and  _781
REMARK  313  A    between atoms: _781  and  _782
REMARK  314  A    between atoms: _781  and  _784
REMARK  315  A    between atoms: _784  and  _785
REMARK  316  A    between atoms: _795  and  _797
REMARK  317  A    between atoms: _797  and  _798
REMARK  318  A    between atoms: _797  and  _800
REMARK  319  A    between atoms: _800  and  _801
REMARK  320  A    between atoms: _804  and  _806
REMARK  321  A    between atoms: _806  and  _807
REMARK  322  A    between atoms: _806  and  _809
REMARK  323  A    between atoms: _809  and  _810
REMARK  324  A    between atoms: _810  and  _811
REMARK  325  A    between atoms: _811  and  _812
REMARK  326  A    between atoms: _821  and  _823
REMARK  327  A    between atoms: _823  and  _824
REMARK  328  A    between atoms: _823  and  _826
REMARK  329  A    between atoms: _826  and  _827
REMARK  330  A    between atoms: _832  and  _833
REMARK                            x       y       z     vdW  Elec       q    Type
REMARK                         _______ _______ _______ _____ _____    ______ ____
ROOT
ATOM      1  CA  TYR A   3      47.368  50.503  -0.570  0.00  0.00    +0.153 C 
ENDROOT
BRANCH   1   4
ATOM      2  C   ARG A   2      49.666  49.995   0.113  0.00  0.00    +0.241 C 
ATOM      3  O   ARG A   2      49.362  49.766   1.276  0.00  0.00    -0.273 OA
ATOM      4  N   TYR A   3      48.806  50.380  -0.821  0.00  0.00    -0.297 N 
ATOM      5  H   TYR A   3      49.168  50.604  -1.770  0.00  0.00    +0.150 HD
BRANCH   2   6
ATOM      6  CA  ARG A   2      51.110  49.844  -0.346  0.00  0.00    +0.149 C 
BRANCH   6   8
ATOM      7  C   LEU A   1      53.113  50.923   0.494  0.00  0.00    +0.238 C 
ATOM      8  N   ARG A   2      52.056  50.146   0.723  0.00  0.00    -0.297 N 
ATOM      9  H   ARG A   2      51.903  49.751   1.673  0.00  0.00    +0.150 HD
ATOM     10  O   LEU A   1      53.330  51.434  -0.605  0.00  0.00    -0.274 OA
BRANCH   7  11
ATOM     11  CA  LEU A   1      54.067  51.151   1.657  0.00  0.00    +0.145 C 
BRANCH  11  12
ATOM     12  N   LEU A   1      55.310  50.556   1.168  0.00  0.00    -0.238 NA
ATOM     13  H   LEU A   1      55.668  50.863   0.241  0.00  0.00    +0.142 HD
ENDBRANCH  11  12
BRANCH  11  14
ATOM     14  CB  LEU A   1      54.218  52.658   1.911  0.00  0.00    +0.026 C 
BRANCH  14  15
ATOM     15  CG  LEU A   1      52.890  53.382   2.206  0.00  0.00    +0.002 C 
ATOM     16  CD2 LEU A   1      52.202  52.743   3.407  0.00  0.00    +0.000 C 
ATOM     17  CD1 LEU A   1      53.165  54.873   2.484  0.00  0.00    +0.000 C 
ENDBRANCH  14  15
ENDBRANCH  11  14
ENDBRANCH   7  11
ENDBRANCH   6   8
BRANCH   6  18
ATOM     18  CB  ARG A   2      51.292  48.393  -0.828  0.00  0.00    +0.033 C 
BRANCH  18  19
ATOM     19  CG  ARG A   2      52.622  48.103  -1.519  0.00  0.00    +0.045 C 
BRANCH  19  20
ATOM     20  CD  ARG A   2      52.924  46.604  -1.530  0.00  0.00    +0.174 C 
BRANCH  20  21
ATOM     21  NE  ARG A   2      54.210  46.321  -2.168  0.00  0.00    -0.265 N 
ATOM     22  CZ  ARG A   2      54.878  45.177  -2.041  0.00  0.00    +0.342 C 
ATOM     23  NH2 ARG A   2      54.391  44.194  -1.290  0.00  0.00    -0.292 N 
ATOM     24 HH21 ARG A   2      53.483  44.317  -0.798  0.00  0.00    +0.255 HD
ATOM     25 HH22 ARG A   2      54.918  43.302  -1.195  0.00  0.00    +0.255 HD
ATOM     26  NH1 ARG A   2      56.032  45.009  -2.674  0.00  0.00    -0.292 N 
ATOM     27 HH11 ARG A   2      56.554  44.115  -2.575  0.00  0.00    +0.255 HD
ATOM     28 HH12 ARG A   2      56.414  45.771  -3.269  0.00  0.00    +0.255 HD
ATOM     29  HE  ARG A   2      54.631  47.065  -2.761  0.00  0.00    +0.259 HD
ENDBRANCH  20  21
ENDBRANCH  19  20
ENDBRANCH  18  19
ENDBRANCH   6  18
ENDBRANCH   2   6
ENDBRANCH   1   4
BRANCH   1  30
ATOM     30  C   TYR A   3      46.609  49.682  -1.621  0.00  0.00    +0.241 C 
ATOM     31  N   PHE A   4      45.713  48.817  -1.154  0.00  0.00    -0.297 N 
ATOM     32  H   PHE A   4      45.589  48.717  -0.126  0.00  0.00    +0.150 HD
ATOM     33  O   TYR A   3      46.837  49.815  -2.834  0.00  0.00    -0.273 OA
BRANCH  31  34
ATOM     34  CA  PHE A   4      44.902  48.007  -2.052  0.00  0.00    +0.153 C 
BRANCH  34  35
ATOM     35  C   PHE A   4      43.501  48.583  -1.908  0.00  0.00    +0.241 C 
ATOM     36  O   PHE A   4      42.949  48.583  -0.810  0.00  0.00    -0.273 OA
ATOM     37  N   VAL A   5      42.955  49.078  -3.010  0.00  0.00    -0.297 N 
ATOM     38  H   VAL A   5      43.484  49.022  -3.904  0.00  0.00    +0.150 HD
BRANCH  37  39
ATOM     39  CA  VAL A   5      41.633  49.700  -3.007  0.00  0.00    +0.149 C 
BRANCH  39  40
ATOM     40  C   VAL A   5      40.677  48.985  -3.943  0.00  0.00    +0.241 C 
ATOM     41  N   THR A   6      39.436  48.804  -3.513  0.00  0.00    -0.296 N 
ATOM     42  H   THR A   6      39.156  49.107  -2.558  0.00  0.00    +0.150 HD
ATOM     43  O   VAL A   5      41.040  48.609  -5.057  0.00  0.00    -0.273 OA
BRANCH  41  44
ATOM     44  CA  THR A   6      38.477  48.176  -4.400  0.00  0.00    +0.164 C 
BRANCH  44  45
ATOM     45  CB  THR A   6      38.428  46.650  -4.230  0.00  0.00    +0.136 C 
ATOM     46  CG2 THR A   6      37.848  46.274  -2.878  0.00  0.00    +0.034 C 
BRANCH  45  47
ATOM     47  OG1 THR A   6      37.616  46.093  -5.270  0.00  0.00    -0.382 OA
ATOM     48  HG1 THR A   6      38.008  46.320  -6.150  0.00  0.00    +0.210 HD
ENDBRANCH  45  47
ENDBRANCH  44  45
BRANCH  44  49
ATOM     49  C   THR A   6      37.088  48.737  -4.178  0.00  0.00    +0.229 C 
ATOM     50  O   THR A   6      36.727  49.111  -3.065  0.00  0.00    -0.286 OA
ENDBRANCH  44  49
ENDBRANCH  41  44
ENDBRANCH  39  40
BRANCH  39  51
ATOM     51  CB  VAL A   5      41.729  51.186  -3.451  0.00  0.00    +0.027 C 
ATOM     52  CG2 VAL A   5      42.700  51.939  -2.541  0.00  0.00    +0.002 C 
ATOM     53  CG1 VAL A   5      40.345  51.840  -3.412  0.00  0.00    +0.002 C 
ENDBRANCH  39  51
ENDBRANCH  37  39
ENDBRANCH  34  35
BRANCH  34  54
ATOM     54  CB  PHE A   4      44.910  46.539  -1.621  0.00  0.00    +0.055 C 
BRANCH  54  55
ATOM     55  CG  PHE A   4      46.260  45.887  -1.734  0.00  0.00    -0.020 A 
ATOM     56  CD2 PHE A   4      47.256  46.153  -0.799  0.00  0.00    -0.004 A 
ATOM     57  CE2 PHE A   4      48.528  45.570  -0.918  0.00  0.00    -0.000 A 
ATOM     58  CZ  PHE A   4      48.799  44.717  -1.984  0.00  0.00    -0.000 A 
ATOM     59  CE1 PHE A   4      47.813  44.443  -2.926  0.00  0.00    -0.000 A 
ATOM     60  CD1 PHE A   4      46.542  45.030  -2.796  0.00  0.00    -0.004 A 
ENDBRANCH  54  55
ENDBRANCH  34  54
ENDBRANCH  31  34
ENDBRANCH   1  30
BRANCH   1  61
ATOM     61  CB  TYR A   3      46.910  51.975  -0.634  0.00  0.00    +0.055 C 
BRANCH  61  62
ATOM     62  CG  TYR A   3      47.335  52.810   0.548  0.00  0.00    -0.020 A 
ATOM     63  CD2 TYR A   3      46.553  52.880   1.705  0.00  0.00    -0.001 A 
ATOM     64  CE2 TYR A   3      46.970  53.620   2.817  0.00  0.00    +0.036 A 
ATOM     65  CZ  TYR A   3      48.189  54.295   2.767  0.00  0.00    +0.134 A 
ATOM     66  CE1 TYR A   3      48.971  54.237   1.631  0.00  0.00    +0.036 A 
ATOM     67  CD1 TYR A   3      48.547  53.503   0.530  0.00  0.00    -0.001 A 
BRANCH  65  68
ATOM     68  OH  TYR A   3      48.625  55.019   3.854  0.00  0.00    -0.506 OA
ATOM     69  HH  TYR A   3      47.954  54.959   4.579  0.00  0.00    +0.292 HD
ENDBRANCH  65  68
ENDBRANCH  61  62
ENDBRANCH   1  61
TORSDOF 26
REMARK  Name = ../refined-set-2016/1fzm/1fzm_pocket.pdb
REMARK  330 active torsions:
REMARK  status: ('A' for Active; 'I' for Inactive)
REMARK    1  A    between atoms: _1  and  _3
REMARK    2  A    between atoms: _3  and  _4
REMARK    3  A    between atoms: _3  and  _6
REMARK    4  A    between atoms: _6  and  _7
REMARK    5  A    between atoms: _10  and  _12
REMARK    6  A    between atoms: _12  and  _13
REMARK    7  A    between atoms: _12  and  _15
REMARK    8  A    between atoms: _15  and  _16
REMARK    9  A    between atoms: _16  and  _17
REMARK   10  A    between atoms: _17  and  _18
REMARK   11  A    between atoms: _27  and  _29
REMARK   12  A    between atoms: _29  and  _30
REMARK   13  A    between atoms: _29  and  _32
REMARK   14  A    between atoms: _32  and  _33
REMARK   15  A    between atoms: _38  and  _39
REMARK   16  A    between atoms: _41  and  _43
REMARK   17  A    between atoms: _43  and  _44
REMARK   18  A    between atoms: _43  and  _46
REMARK   19  A    between atoms: _46  and  _47
REMARK   20  A    between atoms: _53  and  _55
REMARK   21  A    between atoms: _55  and  _56
REMARK   22  A    between atoms: _55  and  _58
REMARK   23  A    between atoms: _61  and  _63
REMARK   24  A    between atoms: _63  and  _64
REMARK   25  A    between atoms: _63  and  _66
REMARK   26  A    between atoms: _66  and  _67
REMARK   27  A    between atoms: _70  and  _72
REMARK   28  A    between atoms: _72  and  _73
REMARK   29  A    between atoms: _72  and  _75
REMARK   30  A    between atoms: _75  and  _76
REMARK   31  A    between atoms: _82  and  _84
REMARK   32  A    between atoms: _84  and  _85
REMARK   33  A    between atoms: _84  and  _87
REMARK   34  A    between atoms: _87  and  _88
REMARK   35  A    between atoms: _90  and  _92
REMARK   36  A    between atoms: _92  and  _93
REMARK   37  A    between atoms: _92  and  _95
REMARK   38  A    between atoms: _98  and  _100
REMARK   39  A    between atoms: _100  and  _101
REMARK   40  A    between atoms: _100  and  _103
REMARK   41  A    between atoms: _103  and  _104
REMARK   42  A    between atoms: _110  and  _112
REMARK   43  A    between atoms: _112  and  _113
REMARK   44  A    between atoms: _112  and  _115
REMARK   45  A    between atoms: _118  and  _120
REMARK   46  A    between atoms: _120  and  _121
REMARK   47  A    between atoms: _120  and  _123
REMARK   48  A    between atoms: _123  and  _124
REMARK   49  A    between atoms: _129  and  _130
REMARK   50  A    between atoms: _132  and  _134
REMARK   51  A    between atoms: _134  and  _135
REMARK   52  A    between atoms: _134  and  _137
REMARK   53  A    between atoms: _137  and  _138
REMARK   54  A    between atoms: _138  and  _139
REMARK   55  A    between atoms: _141  and  _143
REMARK   56  A    between atoms: _143  and  _144
REMARK   57  A    between atoms: _143  and  _146
REMARK   58  A    between atoms: _146  and  _147
REMARK   59  A    between atoms: _147  and  _148
REMARK   60  A    between atoms: _151  and  _153
REMARK   61  A    between atoms: _153  and  _154
REMARK   62  A    between atoms: _156  and  _158
REMARK   63  A    between atoms: _158  and  _159
REMARK   64  A    between atoms: _158  and  _161
REMARK   65  A    between atoms: _161  and  _162
REMARK   66  A    between atoms: _162  and  _163
REMARK   67  A    between atoms: _166  and  _168
REMARK   68  A    between atoms: _168  and  _169
REMARK   69  A    between atoms: _168  and  _171
REMARK   70  A    between atoms: _171  and  _172
REMARK   71  A    between atoms: _177  and  _178
REMARK   72  A    between atoms: _180  and  _182
REMARK   73  A    between atoms: _182  and  _183
REMARK   74  A    between atoms: _182  and  _185
REMARK   75  A    between atoms: _185  and  _186
REMARK   76  A    between atoms: _196  and  _198
REMARK   77  A    between atoms: _198  and  _199
REMARK   78  A    between atoms: _198  and  _201
REMARK   79  A    between atoms: _201  and  _202
REMARK   80  A    between atoms: _202  and  _203
REMARK   81  A    between atoms: _203  and  _204
REMARK   82  A    between atoms: _213  and  _215
REMARK   83  A    between atoms: _215  and  _216
REMARK   84  A    between atoms: _215  and  _218
REMARK   85  A    between atoms: _218  and  _219
REMARK   86  A    between atoms: _219  and  _220
REMARK   87  A    between atoms: _223  and  _225
REMARK   88  A    between atoms: _225  and  _226
REMARK   89  A    between atoms: _225  and  _228
REMARK   90  A    between atoms: _228  and  _229
REMARK   91  A    between atoms: _229  and  _230
REMARK   92  A    between atoms: _235  and  _237
REMARK   93  A    between atoms: _237  and  _238
REMARK   94  A    between atoms: _237  and  _240
REMARK   95  A    between atoms: _240  and  _241
REMARK   96  A    between atoms: _241  and  _242
REMARK   97  A    between atoms: _242  and  _243
REMARK   98  A    between atoms: _243  and  _244
REMARK   99  A    between atoms: _248  and  _250
REMARK  100  A    between atoms: _250  and  _251
REMARK  101  A    between atoms: _254  and  _256
REMARK  102  A    between atoms: _256  and  _257
REMARK  103  A    between atoms: _259  and  _261
REMARK  104  A    between atoms: _261  and  _262
REMARK  105  A    between atoms: _261  and  _264
REMARK  106  A    between atoms: _264  and  _265
REMARK  107  A    between atoms: _270  and  _272
REMARK  108  A    between atoms: _272  and  _273
REMARK  109  A    between atoms: _272  and  _275
REMARK  110  A    between atoms: _275  and  _276
REMARK  111  A    between atoms: _276  and  _277
REMARK  112  A    between atoms: _280  and  _282
REMARK  113  A    between atoms: _282  and  _283
REMARK  114  A    between atoms: _282  and  _285
REMARK  115  A    between atoms: _285  and  _286
REMARK  116  A    between atoms: _288  and  _290
REMARK  117  A    between atoms: _290  and  _291
REMARK  118  A    between atoms: _290  and  _293
REMARK  119  A    between atoms: _293  and  _294
REMARK  120  A    between atoms: _300  and  _302
REMARK  121  A    between atoms: _302  and  _303
REMARK  122  A    between atoms: _302  and  _305
REMARK  123  A    between atoms: _308  and  _310
REMARK  124  A    between atoms: _310  and  _311
REMARK  125  A    between atoms: _310  and  _313
REMARK  126  A    between atoms: _313  and  _314
REMARK  127  A    between atoms: _317  and  _319
REMARK  128  A    between atoms: _319  and  _320
REMARK  129  A    between atoms: _319  and  _322
REMARK  130  A    between atoms: _322  and  _323
REMARK  131  A    between atoms: _326  and  _328
REMARK  132  A    between atoms: _328  and  _329
REMARK  133  A    between atoms: _328  and  _331
REMARK  134  A    between atoms: _331  and  _332
REMARK  135  A    between atoms: _335  and  _337
REMARK  136  A    between atoms: _337  and  _338
REMARK  137  A    between atoms: _337  and  _340
REMARK  138  A    between atoms: _340  and  _341
REMARK  139  A    between atoms: _344  and  _346
REMARK  140  A    between atoms: _346  and  _347
REMARK  141  A    between atoms: _346  and  _349
REMARK  142  A    between atoms: _349  and  _350
REMARK  143  A    between atoms: _355  and  _356
REMARK  144  A    between atoms: _358  and  _360
REMARK  145  A    between atoms: _360  and  _361
REMARK  146  A    between atoms: _360  and  _363
REMARK  147  A    between atoms: _363  and  _364
REMARK  148  A    between atoms: _369  and  _370
REMARK  149  A    between atoms: _372  and  _374
REMARK  150  A    between atoms: _374  and  _375
REMARK  151  A    between atoms: _374  and  _377
REMARK  152  A    between atoms: _377  and  _378
REMARK  153  A    between atoms: _381  and  _383
REMARK  154  A    between atoms: _383  and  _384
REMARK  155  A    between atoms: _383  and  _386
REMARK  156  A    between atoms: _386  and  _387
REMARK  157  A    between atoms: _387  and  _388
REMARK  158  A    between atoms: _393  and  _395
REMARK  159  A    between atoms: _395  and  _396
REMARK  160  A    between atoms: _395  and  _398
REMARK  161  A    between atoms: _401  and  _403
REMARK  162  A    between atoms: _403  and  _404
REMARK  163  A    between atoms: _403  and  _406
REMARK  164  A    between atoms: _406  and  _407
REMARK  165  A    between atoms: _410  and  _412
REMARK  166  A    between atoms: _412  and  _413
REMARK  167  A    between atoms: _412  and  _415
REMARK  168  A    between atoms: _415  and  _416
REMARK  169  A    between atoms: _418  and  _420
REMARK  170  A    between atoms: _420  and  _421
REMARK  171  A    between atoms: _423  and  _425
REMARK  172  A    between atoms: _425  and  _426
REMARK  173  A    between atoms: _425  and  _428
REMARK  174  A    between atoms: _428  and  _429
REMARK  175  A    between atoms: _434  and  _435
REMARK  176  A    between atoms: _437  and  _439
REMARK  177  A    between atoms: _439  and  _440
REMARK  178  A    between atoms: _439  and  _442
REMARK  179  A    between atoms: _442  and  _443
REMARK  180  A    between atoms: _443  and  _444
REMARK  181  A    between atoms: _449  and  _451
REMARK  182  A    between atoms: _451  and  _452
REMARK  183  A    between atoms: _451  and  _454
REMARK  184  A    between atoms: _454  and  _455
REMARK  185  A    between atoms: _455  and  _456
REMARK  186  A    between atoms: _461  and  _463
REMARK  187  A    between atoms: _463  and  _464
REMARK  188  A    between atoms: _463  and  _466
REMARK  189  A    between atoms: _466  and  _467
REMARK  190  A    between atoms: _472  and  _473
REMARK  191  A    between atoms: _475  and  _477
REMARK  192  A    between atoms: _477  and  _478
REMARK  193  A    between atoms: _481  and  _483
REMARK  194  A    between atoms: _483  and  _484
REMARK  195  A    between atoms: _483  and  _486
REMARK  196  A    between atoms: _486  and  _487
REMARK  197  A    between atoms: _492  and  _493
REMARK  198  A    between atoms: _495  and  _497
REMARK  199  A    between atoms: _497  and  _498
REMARK  200  A    between atoms: _497  and  _500
REMARK  201  A    between atoms: _500  and  _501
REMARK  202  A    between atoms: _506  and  _507
REMARK  203  A    between atoms: _509  and  _511
REMARK  204  A    between atoms: _511  and  _512
REMARK  205  A    between atoms: _511  and  _514
REMARK  206  A    between atoms: _514  and  _515
REMARK  207  A    between atoms: _518  and  _520
REMARK  208  A    between atoms: _520  and  _521
REMARK  209  A    between atoms: _520  and  _523
REMARK  210  A    between atoms: _523  and  _524
REMARK  211  A    between atoms: _534  and  _536
REMARK  212  A    between atoms: _536  and  _537
REMARK  213  A    between atoms: _540  and  _542
REMARK  214  A    between atoms: _542  and  _543
REMARK  215  A    between atoms: _546  and  _548
REMARK  216  A    between atoms: _548  and  _549
REMARK  217  A    between atoms: _548  and  _551
REMARK  218  A    between atoms: _551  and  _552
REMARK  219  A    between atoms: _555  and  _557
REMARK  220  A    between atoms: _557  and  _558
REMARK  221  A    between atoms: _557  and  _560
REMARK  222  A    between atoms: _560  and  _561
REMARK  223  A    between atoms: _564  and  _566
REMARK  224  A    between atoms: _566  and  _567
REMARK  225  A    between atoms: _566  and  _569
REMARK  226  A    between atoms: _569  and  _570
REMARK  227  A    between atoms: _573  and  _575
REMARK  228  A    between atoms: _575  and  _576
REMARK  229  A    between atoms: _575  and  _578
REMARK  230  A    between atoms: _578  and  _579
REMARK  231  A    between atoms: _579  and  _580
REMARK  232  A    between atoms: _580  and  _581
REMARK  233  A    between atoms: _581  and  _582
REMARK  234  A    between atoms: _586  and  _588
REMARK  235  A    between atoms: _588  and  _589
REMARK  236  A    between atoms: _588  and  _591
REMARK  237  A    between atoms: _591  and  _592
REMARK  238  A    between atoms: _597  and  _599
REMARK  239  A    between atoms: _599  and  _600
REMARK  240  A    between atoms: _599  and  _602
REMARK  241  A    between atoms: _602  and  _603
REMARK  242  A    between atoms: _603  and  _604
REMARK  243  A    between atoms: _604  and  _605
REMARK  244  A    between atoms: _605  and  _606
REMARK  245  A    between atoms: _610  and  _612
REMARK  246  A    between atoms: _612  and  _613
REMARK  247  A    between atoms: _612  and  _615
REMARK  248  A    between atoms: _615  and  _616
REMARK  249  A    between atoms: _626  and  _628
REMARK  250  A    between atoms: _628  and  _629
REMARK  251  A    between atoms: _628  and  _631
REMARK  252  A    between atoms: _631  and  _632
REMARK  253  A    between atoms: _632  and  _633
REMARK  254  A    between atoms: _636  and  _638
REMARK  255  A    between atoms: _638  and  _639
REMARK  256  A    between atoms: _642  and  _644
REMARK  257  A    between atoms: _644  and  _645
REMARK  258  A    between atoms: _647  and  _649
REMARK  259  A    between atoms: _649  and  _650
REMARK  260  A    between atoms: _649  and  _652
REMARK  261  A    between atoms: _652  and  _653
REMARK  262  A    between atoms: _653  and  _654
REMARK  263  A    between atoms: _657  and  _659
REMARK  264  A    between atoms: _659  and  _660
REMARK  265  A    between atoms: _663  and  _665
REMARK  266  A    between atoms: _665  and  _666
REMARK  267  A    between atoms: _665  and  _668
REMARK  268  A    between atoms: _668  and  _669
REMARK  269  A    between atoms: _669  and  _670
REMARK  270  A    between atoms: _673  and  _675
REMARK  271  A    between atoms: _675  and  _676
REMARK  272  A    between atoms: _675  and  _678
REMARK  273  A    between atoms: _678  and  _679
REMARK  274  A    between atoms: _679  and  _680
REMARK  275  A    between atoms: _680  and  _681
REMARK  276  A    between atoms: _690  and  _692
REMARK  277  A    between atoms: _692  and  _693
REMARK  278  A    between atoms: _692  and  _695
REMARK  279  A    between atoms: _695  and  _696
REMARK  280  A    between atoms: _699  and  _701
REMARK  281  A    between atoms: _701  and  _702
REMARK  282  A    between atoms: _701  and  _704
REMARK  283  A    between atoms: _704  and  _705
REMARK  284  A    between atoms: _705  and  _706
REMARK  285  A    between atoms: _706  and  _707
REMARK  286  A    between atoms: _716  and  _718
REMARK  287  A    between atoms: _718  and  _719
REMARK  288  A    between atoms: _722  and  _724
REMARK  289  A    between atoms: _724  and  _725
REMARK  290  A    between atoms: _724  and  _727
REMARK  291  A    between atoms: _727  and  _728
REMARK  292  A    between atoms: _733  and  _734
REMARK  293  A    between atoms: _736  and  _738
REMARK  294  A    between atoms: _738  and  _739
REMARK  295  A    between atoms: _738  and  _741
REMARK  296  A    between atoms: _741  and  _742
REMARK  297  A    between atoms: _745  and  _747
REMARK  298  A    between atoms: _747  and  _748
REMARK  299  A    between atoms: _747  and  _750
REMARK  300  A    between atoms: _750  and  _751
REMARK  301  A    between atoms: _754  and  _756
REMARK  302  A    between atoms: _756  and  _757
REMARK  303  A    between atoms: _756  and  _759
REMARK  304  A    between atoms: _761  and  _763
REMARK  305  A    between atoms: _763  and  _764
REMARK  306  A    between atoms: _763  and  _766
REMARK  307  A    between atoms: _769  and  _771
REMARK  308  A    between atoms: _771  and  _772
REMARK  309  A    between atoms: _771  and  _774
REMARK  310  A    between atoms: _774  and  _775
REMARK  311  A    between atoms: _775  and  _776
REMARK  312  A    between atoms: _779  and  _781
REMARK  313  A    between atoms: _781  and  _782
REMARK  314  A    between atoms: _781  and  _784
REMARK  315  A    between atoms: _784  and  _785
REMARK  316  A    between atoms: _795  and  _797
REMARK  317  A    between atoms: _797  and  _798
REMARK  318  A    between atoms: _797  and  _800
REMARK  319  A    between atoms: _800  and  _801
REMARK  320  A    between atoms: _804  and  _806
REMARK  321  A    between atoms: _806  and  _807
REMARK  322  A    between atoms: _806  and  _809
REMARK  323  A    between atoms: _809  and  _810
REMARK  324  A    between atoms: _810  and  _811
REMARK  325  A    between atoms: _811  and  _812
REMARK  326  A    between atoms: _821  and  _823
REMARK  327  A    between atoms: _823  and  _824
REMARK  328  A    between atoms: _823  and  _826
REMARK  329  A    between atoms: _826  and  _827
REMARK  330  A    between atoms: _832  and  _833
REMARK                            x       y       z     vdW  Elec       q    Type
REMARK                         _______ _______ _______ _____ _____    ______ ____
ROOT
ATOM      1  CB  PHE A   1      34.279  52.110  -1.117  0.00  0.00    +0.051 C 
ENDROOT
BRANCH   1   2
ATOM      2  CG  PHE A   1      35.621  52.802  -1.192  0.00  0.00    -0.020 A 
ATOM      3  CD2 PHE A   1      36.223  53.290  -0.038  0.00  0.00    -0.004 A 
ATOM      4  CE2 PHE A   1      37.486  53.902  -0.088  0.00  0.00    -0.000 A 
ATOM      5  CZ  PHE A   1      38.145  54.026  -1.300  0.00  0.00    -0.000 A 
ATOM      6  CE1 PHE A   1      37.555  53.547  -2.469  0.00  0.00    -0.000 A 
ATOM      7  CD1 PHE A   1      36.288  52.934  -2.405  0.00  0.00    -0.004 A 
ENDBRANCH   1   2
BRANCH   1   8
ATOM      8  CA  PHE A   1      34.373  50.581  -0.994  0.00  0.00    +0.137 C 
BRANCH   8   9
ATOM      9  N   PHE A   1      33.047  50.011  -0.763  0.00  0.00    -0.239 NA
ATOM     10  H   PHE A   1      32.564  50.205   0.137  0.00  0.00    +0.142 HD
ENDBRANCH   8   9
BRANCH   8  11
ATOM     11  C   PHE A   1      35.292  50.209   0.164  0.00  0.00    +0.224 C 
ATOM     12  O   PHE A   1      34.974  50.433   1.338  0.00  0.00    -0.287 OA
ENDBRANCH   8  11
ENDBRANCH   1   8
TORSDOF 4
REMARK  Name = ../refined-set-2016/1fzm/1fzm_pocket.pdb
REMARK  330 active torsions:
REMARK  status: ('A' for Active; 'I' for Inactive)
REMARK    1  A    between atoms: _1  and  _3
REMARK    2  A    between atoms: _3  and  _4
REMARK    3  A    between atoms: _3  and  _6
REMARK    4  A    between atoms: _6  and  _7
REMARK    5  A    between atoms: _10  and  _12
REMARK    6  A    between atoms: _12  and  _13
REMARK    7  A    between atoms: _12  and  _15
REMARK    8  A    between atoms: _15  and  _16
REMARK    9  A    between atoms: _16  and  _17
REMARK   10  A    between atoms: _17  and  _18
REMARK   11  A    between atoms: _27  and  _29
REMARK   12  A    between atoms: _29  and  _30
REMARK   13  A    between atoms: _29  and  _32
REMARK   14  A    between atoms: _32  and  _33
REMARK   15  A    between atoms: _38  and  _39
REMARK   16  A    between atoms: _41  and  _43
REMARK   17  A    between atoms: _43  and  _44
REMARK   18  A    between atoms: _43  and  _46
REMARK   19  A    between atoms: _46  and  _47
REMARK   20  A    between atoms: _53  and  _55
REMARK   21  A    between atoms: _55  and  _56
REMARK   22  A    between atoms: _55  and  _58
REMARK   23  A    between atoms: _61  and  _63
REMARK   24  A    between atoms: _63  and  _64
REMARK   25  A    between atoms: _63  and  _66
REMARK   26  A    between atoms: _66  and  _67
REMARK   27  A    between atoms: _70  and  _72
REMARK   28  A    between atoms: _72  and  _73
REMARK   29  A    between atoms: _72  and  _75
REMARK   30  A    between atoms: _75  and  _76
REMARK   31  A    between atoms: _82  and  _84
REMARK   32  A    between atoms: _84  and  _85
REMARK   33  A    between atoms: _84  and  _87
REMARK   34  A    between atoms: _87  and  _88
REMARK   35  A    between atoms: _90  and  _92
REMARK   36  A    between atoms: _92  and  _93
REMARK   37  A    between atoms: _92  and  _95
REMARK   38  A    between atoms: _98  and  _100
REMARK   39  A    between atoms: _100  and  _101
REMARK   40  A    between atoms: _100  and  _103
REMARK   41  A    between atoms: _103  and  _104
REMARK   42  A    between atoms: _110  and  _112
REMARK   43  A    between atoms: _112  and  _113
REMARK   44  A    between atoms: _112  and  _115
REMARK   45  A    between atoms: _118  and  _120
REMARK   46  A    between atoms: _120  and  _121
REMARK   47  A    between atoms: _120  and  _123
REMARK   48  A    between atoms: _123  and  _124
REMARK   49  A    between atoms: _129  and  _130
REMARK   50  A    between atoms: _132  and  _134
REMARK   51  A    between atoms: _134  and  _135
REMARK   52  A    between atoms: _134  and  _137
REMARK   53  A    between atoms: _137  and  _138
REMARK   54  A    between atoms: _138  and  _139
REMARK   55  A    between atoms: _141  and  _143
REMARK   56  A    between atoms: _143  and  _144
REMARK   57  A    between atoms: _143  and  _146
REMARK   58  A    between atoms: _146  and  _147
REMARK   59  A    between atoms: _147  and  _148
REMARK   60  A    between atoms: _151  and  _153
REMARK   61  A    between atoms: _153  and  _154
REMARK   62  A    between atoms: _156  and  _158
REMARK   63  A    between atoms: _158  and  _159
REMARK   64  A    between atoms: _158  and  _161
REMARK   65  A    between atoms: _161  and  _162
REMARK   66  A    between atoms: _162  and  _163
REMARK   67  A    between atoms: _166  and  _168
REMARK   68  A    between atoms: _168  and  _169
REMARK   69  A    between atoms: _168  and  _171
REMARK   70  A    between atoms: _171  and  _172
REMARK   71  A    between atoms: _177  and  _178
REMARK   72  A    between atoms: _180  and  _182
REMARK   73  A    between atoms: _182  and  _183
REMARK   74  A    between atoms: _182  and  _185
REMARK   75  A    between atoms: _185  and  _186
REMARK   76  A    between atoms: _196  and  _198
REMARK   77  A    between atoms: _198  and  _199
REMARK   78  A    between atoms: _198  and  _201
REMARK   79  A    between atoms: _201  and  _202
REMARK   80  A    between atoms: _202  and  _203
REMARK   81  A    between atoms: _203  and  _204
REMARK   82  A    between atoms: _213  and  _215
REMARK   83  A    between atoms: _215  and  _216
REMARK   84  A    between atoms: _215  and  _218
REMARK   85  A    between atoms: _218  and  _219
REMARK   86  A    between atoms: _219  and  _220
REMARK   87  A    between atoms: _223  and  _225
REMARK   88  A    between atoms: _225  and  _226
REMARK   89  A    between atoms: _225  and  _228
REMARK   90  A    between atoms: _228  and  _229
REMARK   91  A    between atoms: _229  and  _230
REMARK   92  A    between atoms: _235  and  _237
REMARK   93  A    between atoms: _237  and  _238
REMARK   94  A    between atoms: _237  and  _240
REMARK   95  A    between atoms: _240  and  _241
REMARK   96  A    between atoms: _241  and  _242
REMARK   97  A    between atoms: _242  and  _243
REMARK   98  A    between atoms: _243  and  _244
REMARK   99  A    between atoms: _248  and  _250
REMARK  100  A    between atoms: _250  and  _251
REMARK  101  A    between atoms: _254  and  _256
REMARK  102  A    between atoms: _256  and  _257
REMARK  103  A    between atoms: _259  and  _261
REMARK  104  A    between atoms: _261  and  _262
REMARK  105  A    between atoms: _261  and  _264
REMARK  106  A    between atoms: _264  and  _265
REMARK  107  A    between atoms: _270  and  _272
REMARK  108  A    between atoms: _272  and  _273
REMARK  109  A    between atoms: _272  and  _275
REMARK  110  A    between atoms: _275  and  _276
REMARK  111  A    between atoms: _276  and  _277
REMARK  112  A    between atoms: _280  and  _282
REMARK  113  A    between atoms: _282  and  _283
REMARK  114  A    between atoms: _282  and  _285
REMARK  115  A    between atoms: _285  and  _286
REMARK  116  A    between atoms: _288  and  _290
REMARK  117  A    between atoms: _290  and  _291
REMARK  118  A    between atoms: _290  and  _293
REMARK  119  A    between atoms: _293  and  _294
REMARK  120  A    between atoms: _300  and  _302
REMARK  121  A    between atoms: _302  and  _303
REMARK  122  A    between atoms: _302  and  _305
REMARK  123  A    between atoms: _308  and  _310
REMARK  124  A    between atoms: _310  and  _311
REMARK  125  A    between atoms: _310  and  _313
REMARK  126  A    between atoms: _313  and  _314
REMARK  127  A    between atoms: _317  and  _319
REMARK  128  A    between atoms: _319  and  _320
REMARK  129  A    between atoms: _319  and  _322
REMARK  130  A    between atoms: _322  and  _323
REMARK  131  A    between atoms: _326  and  _328
REMARK  132  A    between atoms: _328  and  _329
REMARK  133  A    between atoms: _328  and  _331
REMARK  134  A    between atoms: _331  and  _332
REMARK  135  A    between atoms: _335  and  _337
REMARK  136  A    between atoms: _337  and  _338
REMARK  137  A    between atoms: _337  and  _340
REMARK  138  A    between atoms: _340  and  _341
REMARK  139  A    between atoms: _344  and  _346
REMARK  140  A    between atoms: _346  and  _347
REMARK  141  A    between atoms: _346  and  _349
REMARK  142  A    between atoms: _349  and  _350
REMARK  143  A    between atoms: _355  and  _356
REMARK  144  A    between atoms: _358  and  _360
REMARK  145  A    between atoms: _360  and  _361
REMARK  146  A    between atoms: _360  and  _363
REMARK  147  A    between atoms: _363  and  _364
REMARK  148  A    between atoms: _369  and  _370
REMARK  149  A    between atoms: _372  and  _374
REMARK  150  A    between atoms: _374  and  _375
REMARK  151  A    between atoms: _374  and  _377
REMARK  152  A    between atoms: _377  and  _378
REMARK  153  A    between atoms: _381  and  _383
REMARK  154  A    between atoms: _383  and  _384
REMARK  155  A    between atoms: _383  and  _386
REMARK  156  A    between atoms: _386  and  _387
REMARK  157  A    between atoms: _387  and  _388
REMARK  158  A    between atoms: _393  and  _395
REMARK  159  A    between atoms: _395  and  _396
REMARK  160  A    between atoms: _395  and  _398
REMARK  161  A    between atoms: _401  and  _403
REMARK  162  A    between atoms: _403  and  _404
REMARK  163  A    between atoms: _403  and  _406
REMARK  164  A    between atoms: _406  and  _407
REMARK  165  A    between atoms: _410  and  _412
REMARK  166  A    between atoms: _412  and  _413
REMARK  167  A    between atoms: _412  and  _415
REMARK  168  A    between atoms: _415  and  _416
REMARK  169  A    between atoms: _418  and  _420
REMARK  170  A    between atoms: _420  and  _421
REMARK  171  A    between atoms: _423  and  _425
REMARK  172  A    between atoms: _425  and  _426
REMARK  173  A    between atoms: _425  and  _428
REMARK  174  A    between atoms: _428  and  _429
REMARK  175  A    between atoms: _434  and  _435
REMARK  176  A    between atoms: _437  and  _439
REMARK  177  A    between atoms: _439  and  _440
REMARK  178  A    between atoms: _439  and  _442
REMARK  179  A    between atoms: _442  and  _443
REMARK  180  A    between atoms: _443  and  _444
REMARK  181  A    between atoms: _449  and  _451
REMARK  182  A    between atoms: _451  and  _452
REMARK  183  A    between atoms: _451  and  _454
REMARK  184  A    between atoms: _454  and  _455
REMARK  185  A    between atoms: _455  and  _456
REMARK  186  A    between atoms: _461  and  _463
REMARK  187  A    between atoms: _463  and  _464
REMARK  188  A    between atoms: _463  and  _466
REMARK  189  A    between atoms: _466  and  _467
REMARK  190  A    between atoms: _472  and  _473
REMARK  191  A    between atoms: _475  and  _477
REMARK  192  A    between atoms: _477  and  _478
REMARK  193  A    between atoms: _481  and  _483
REMARK  194  A    between atoms: _483  and  _484
REMARK  195  A    between atoms: _483  and  _486
REMARK  196  A    between atoms: _486  and  _487
REMARK  197  A    between atoms: _492  and  _493
REMARK  198  A    between atoms: _495  and  _497
REMARK  199  A    between atoms: _497  and  _498
REMARK  200  A    between atoms: _497  and  _500
REMARK  201  A    between atoms: _500  and  _501
REMARK  202  A    between atoms: _506  and  _507
REMARK  203  A    between atoms: _509  and  _511
REMARK  204  A    between atoms: _511  and  _512
REMARK  205  A    between atoms: _511  and  _514
REMARK  206  A    between atoms: _514  and  _515
REMARK  207  A    between atoms: _518  and  _520
REMARK  208  A    between atoms: _520  and  _521
REMARK  209  A    between atoms: _520  and  _523
REMARK  210  A    between atoms: _523  and  _524
REMARK  211  A    between atoms: _534  and  _536
REMARK  212  A    between atoms: _536  and  _537
REMARK  213  A    between atoms: _540  and  _542
REMARK  214  A    between atoms: _542  and  _543
REMARK  215  A    between atoms: _546  and  _548
REMARK  216  A    between atoms: _548  and  _549
REMARK  217  A    between atoms: _548  and  _551
REMARK  218  A    between atoms: _551  and  _552
REMARK  219  A    between atoms: _555  and  _557
REMARK  220  A    between atoms: _557  and  _558
REMARK  221  A    between atoms: _557  and  _560
REMARK  222  A    between atoms: _560  and  _561
REMARK  223  A    between atoms: _564  and  _566
REMARK  224  A    between atoms: _566  and  _567
REMARK  225  A    between atoms: _566  and  _569
REMARK  226  A    between atoms: _569  and  _570
REMARK  227  A    between atoms: _573  and  _575
REMARK  228  A    between atoms: _575  and  _576
REMARK  229  A    between atoms: _575  and  _578
REMARK  230  A    between atoms: _578  and  _579
REMARK  231  A    between atoms: _579  and  _580
REMARK  232  A    between atoms: _580  and  _581
REMARK  233  A    between atoms: _581  and  _582
REMARK  234  A    between atoms: _586  and  _588
REMARK  235  A    between atoms: _588  and  _589
REMARK  236  A    between atoms: _588  and  _591
REMARK  237  A    between atoms: _591  and  _592
REMARK  238  A    between atoms: _597  and  _599
REMARK  239  A    between atoms: _599  and  _600
REMARK  240  A    between atoms: _599  and  _602
REMARK  241  A    between atoms: _602  and  _603
REMARK  242  A    between atoms: _603  and  _604
REMARK  243  A    between atoms: _604  and  _605
REMARK  244  A    between atoms: _605  and  _606
REMARK  245  A    between atoms: _610  and  _612
REMARK  246  A    between atoms: _612  and  _613
REMARK  247  A    between atoms: _612  and  _615
REMARK  248  A    between atoms: _615  and  _616
REMARK  249  A    between atoms: _626  and  _628
REMARK  250  A    between atoms: _628  and  _629
REMARK  251  A    between atoms: _628  and  _631
REMARK  252  A    between atoms: _631  and  _632
REMARK  253  A    between atoms: _632  and  _633
REMARK  254  A    between atoms: _636  and  _638
REMARK  255  A    between atoms: _638  and  _639
REMARK  256  A    between atoms: _642  and  _644
REMARK  257  A    between atoms: _644  and  _645
REMARK  258  A    between atoms: _647  and  _649
REMARK  259  A    between atoms: _649  and  _650
REMARK  260  A    between atoms: _649  and  _652
REMARK  261  A    between atoms: _652  and  _653
REMARK  262  A    between atoms: _653  and  _654
REMARK  263  A    between atoms: _657  and  _659
REMARK  264  A    between atoms: _659  and  _660
REMARK  265  A    between atoms: _663  and  _665
REMARK  266  A    between atoms: _665  and  _666
REMARK  267  A    between atoms: _665  and  _668
REMARK  268  A    between atoms: _668  and  _669
REMARK  269  A    between atoms: _669  and  _670
REMARK  270  A    between atoms: _673  and  _675
REMARK  271  A    between atoms: _675  and  _676
REMARK  272  A    between atoms: _675  and  _678
REMARK  273  A    between atoms: _678  and  _679
REMARK  274  A    between atoms: _679  and  _680
REMARK  275  A    between atoms: _680  and  _681
REMARK  276  A    between atoms: _690  and  _692
REMARK  277  A    between atoms: _692  and  _693
REMARK  278  A    between atoms: _692  and  _695
REMARK  279  A    between atoms: _695  and  _696
REMARK  280  A    between atoms: _699  and  _701
REMARK  281  A    between atoms: _701  and  _702
REMARK  282  A    between atoms: _701  and  _704
REMARK  283  A    between atoms: _704  and  _705
REMARK  284  A    between atoms: _705  and  _706
REMARK  285  A    between atoms: _706  and  _707
REMARK  286  A    between atoms: _716  and  _718
REMARK  287  A    between atoms: _718  and  _719
REMARK  288  A    between atoms: _722  and  _724
REMARK  289  A    between atoms: _724  and  _725
REMARK  290  A    between atoms: _724  and  _727
REMARK  291  A    between atoms: _727  and  _728
REMARK  292  A    between atoms: _733  and  _734
REMARK  293  A    between atoms: _736  and  _738
REMARK  294  A    between atoms: _738  and  _739
REMARK  295  A    between atoms: _738  and  _741
REMARK  296  A    between atoms: _741  and  _742
REMARK  297  A    between atoms: _745  and  _747
REMARK  298  A    between atoms: _747  and  _748
REMARK  299  A    between atoms: _747  and  _750
REMARK  300  A    between atoms: _750  and  _751
REMARK  301  A    between atoms: _754  and  _756
REMARK  302  A    between atoms: _756  and  _757
REMARK  303  A    between atoms: _756  and  _759
REMARK  304  A    between atoms: _761  and  _763
REMARK  305  A    between atoms: _763  and  _764
REMARK  306  A    between atoms: _763  and  _766
REMARK  307  A    between atoms: _769  and  _771
REMARK  308  A    between atoms: _771  and  _772
REMARK  309  A    between atoms: _771  and  _774
REMARK  310  A    between atoms: _774  and  _775
REMARK  311  A    between atoms: _775  and  _776
REMARK  312  A    between atoms: _779  and  _781
REMARK  313  A    between atoms: _781  and  _782
REMARK  314  A    between atoms: _781  and  _784
REMARK  315  A    between atoms: _784  and  _785
REMARK  316  A    between atoms: _795  and  _797
REMARK  317  A    between atoms: _797  and  _798
REMARK  318  A    between atoms: _797  and  _800
REMARK  319  A    between atoms: _800  and  _801
REMARK  320  A    between atoms: _804  and  _806
REMARK  321  A    between atoms: _806  and  _807
REMARK  322  A    between atoms: _806  and  _809
REMARK  323  A    between atoms: _809  and  _810
REMARK  324  A    between atoms: _810  and  _811
REMARK  325  A    between atoms: _811  and  _812
REMARK  326  A    between atoms: _821  and  _823
REMARK  327  A    between atoms: _823  and  _824
REMARK  328  A    between atoms: _823  and  _826
REMARK  329  A    between atoms: _826  and  _827
REMARK  330  A    between atoms: _832  and  _833
REMARK                            x       y       z     vdW  Elec       q    Type
REMARK                         _______ _______ _______ _____ _____    ______ ____
ROOT
ATOM      1  C   SER A   1      41.746  49.975   2.407  0.00  0.00    +0.241 C 
ATOM      2  O   SER A   1      41.424  50.173   3.579  0.00  0.00    -0.274 OA
ATOM      3  N   VAL A   2      42.782  49.214   2.070  0.00  0.00    -0.298 N 
ATOM      4  H   VAL A   2      43.001  49.058   1.066  0.00  0.00    +0.150 HD
ENDROOT
BRANCH   1   5
ATOM      5  CA  SER A   1      40.939  50.582   1.266  0.00  0.00    +0.174 C 
BRANCH   5   6
ATOM      6  N   SER A   1      39.553  50.165   1.462  0.00  0.00    -0.236 NA
ATOM      7  H   SER A   1      39.132  50.261   2.408  0.00  0.00    +0.142 HD
ENDBRANCH   5   6
BRANCH   5   8
ATOM      8  CB  SER A   1      41.057  52.112   1.289  0.00  0.00    +0.163 C 
BRANCH   8   9
ATOM      9  OG  SER A   1      42.417  52.518   1.223  0.00  0.00    -0.380 OA
ATOM     10  H   SER A   1      42.466  53.507   1.239  0.00  0.00    +0.211 HD
ENDBRANCH   8   9
ENDBRANCH   5   8
ENDBRANCH   1   5
BRANCH   3  11
ATOM     11  CA  VAL A   2      43.613  48.597   3.095  0.00  0.00    +0.137 C 
BRANCH  11  12
ATOM     12  CB  VAL A   2      43.494  47.050   3.059  0.00  0.00    +0.026 C 
ATOM     13  CG2 VAL A   2      44.198  46.449   4.268  0.00  0.00    +0.002 C 
ATOM     14  CG1 VAL A   2      42.012  46.636   3.041  0.00  0.00    +0.002 C 
ENDBRANCH  11  12
BRANCH  11  15
ATOM     15  C   VAL A   2      45.071  48.974   2.831  0.00  0.00    +0.227 C 
ATOM     16  O   VAL A   2      45.540  48.851   1.704  0.00  0.00    -0.286 OA
ENDBRANCH  11  15
ENDBRANCH   3  11
TORSDOF 7
REMARK  Name = ../refined-set-2016/1fzm/1fzm_pocket.pdb
REMARK  330 active torsions:
REMARK  status: ('A' for Active; 'I' for Inactive)
REMARK    1  A    between atoms: _1  and  _3
REMARK    2  A    between atoms: _3  and  _4
REMARK    3  A    between atoms: _3  and  _6
REMARK    4  A    between atoms: _6  and  _7
REMARK    5  A    between atoms: _10  and  _12
REMARK    6  A    between atoms: _12  and  _13
REMARK    7  A    between atoms: _12  and  _15
REMARK    8  A    between atoms: _15  and  _16
REMARK    9  A    between atoms: _16  and  _17
REMARK   10  A    between atoms: _17  and  _18
REMARK   11  A    between atoms: _27  and  _29
REMARK   12  A    between atoms: _29  and  _30
REMARK   13  A    between atoms: _29  and  _32
REMARK   14  A    between atoms: _32  and  _33
REMARK   15  A    between atoms: _38  and  _39
REMARK   16  A    between atoms: _41  and  _43
REMARK   17  A    between atoms: _43  and  _44
REMARK   18  A    between atoms: _43  and  _46
REMARK   19  A    between atoms: _46  and  _47
REMARK   20  A    between atoms: _53  and  _55
REMARK   21  A    between atoms: _55  and  _56
REMARK   22  A    between atoms: _55  and  _58
REMARK   23  A    between atoms: _61  and  _63
REMARK   24  A    between atoms: _63  and  _64
REMARK   25  A    between atoms: _63  and  _66
REMARK   26  A    between atoms: _66  and  _67
REMARK   27  A    between atoms: _70  and  _72
REMARK   28  A    between atoms: _72  and  _73
REMARK   29  A    between atoms: _72  and  _75
REMARK   30  A    between atoms: _75  and  _76
REMARK   31  A    between atoms: _82  and  _84
REMARK   32  A    between atoms: _84  and  _85
REMARK   33  A    between atoms: _84  and  _87
REMARK   34  A    between atoms: _87  and  _88
REMARK   35  A    between atoms: _90  and  _92
REMARK   36  A    between atoms: _92  and  _93
REMARK   37  A    between atoms: _92  and  _95
REMARK   38  A    between atoms: _98  and  _100
REMARK   39  A    between atoms: _100  and  _101
REMARK   40  A    between atoms: _100  and  _103
REMARK   41  A    between atoms: _103  and  _104
REMARK   42  A    between atoms: _110  and  _112
REMARK   43  A    between atoms: _112  and  _113
REMARK   44  A    between atoms: _112  and  _115
REMARK   45  A    between atoms: _118  and  _120
REMARK   46  A    between atoms: _120  and  _121
REMARK   47  A    between atoms: _120  and  _123
REMARK   48  A    between atoms: _123  and  _124
REMARK   49  A    between atoms: _129  and  _130
REMARK   50  A    between atoms: _132  and  _134
REMARK   51  A    between atoms: _134  and  _135
REMARK   52  A    between atoms: _134  and  _137
REMARK   53  A    between atoms: _137  and  _138
REMARK   54  A    between atoms: _138  and  _139
REMARK   55  A    between atoms: _141  and  _143
REMARK   56  A    between atoms: _143  and  _144
REMARK   57  A    between atoms: _143  and  _146
REMARK   58  A    between atoms: _146  and  _147
REMARK   59  A    between atoms: _147  and  _148
REMARK   60  A    between atoms: _151  and  _153
REMARK   61  A    between atoms: _153  and  _154
REMARK   62  A    between atoms: _156  and  _158
REMARK   63  A    between atoms: _158  and  _159
REMARK   64  A    between atoms: _158  and  _161
REMARK   65  A    between atoms: _161  and  _162
REMARK   66  A    between atoms: _162  and  _163
REMARK   67  A    between atoms: _166  and  _168
REMARK   68  A    between atoms: _168  and  _169
REMARK   69  A    between atoms: _168  and  _171
REMARK   70  A    between atoms: _171  and  _172
REMARK   71  A    between atoms: _177  and  _178
REMARK   72  A    between atoms: _180  and  _182
REMARK   73  A    between atoms: _182  and  _183
REMARK   74  A    between atoms: _182  and  _185
REMARK   75  A    between atoms: _185  and  _186
REMARK   76  A    between atoms: _196  and  _198
REMARK   77  A    between atoms: _198  and  _199
REMARK   78  A    between atoms: _198  and  _201
REMARK   79  A    between atoms: _201  and  _202
REMARK   80  A    between atoms: _202  and  _203
REMARK   81  A    between atoms: _203  and  _204
REMARK   82  A    between atoms: _213  and  _215
REMARK   83  A    between atoms: _215  and  _216
REMARK   84  A    between atoms: _215  and  _218
REMARK   85  A    between atoms: _218  and  _219
REMARK   86  A    between atoms: _219  and  _220
REMARK   87  A    between atoms: _223  and  _225
REMARK   88  A    between atoms: _225  and  _226
REMARK   89  A    between atoms: _225  and  _228
REMARK   90  A    between atoms: _228  and  _229
REMARK   91  A    between atoms: _229  and  _230
REMARK   92  A    between atoms: _235  and  _237
REMARK   93  A    between atoms: _237  and  _238
REMARK   94  A    between atoms: _237  and  _240
REMARK   95  A    between atoms: _240  and  _241
REMARK   96  A    between atoms: _241  and  _242
REMARK   97  A    between atoms: _242  and  _243
REMARK   98  A    between atoms: _243  and  _244
REMARK   99  A    between atoms: _248  and  _250
REMARK  100  A    between atoms: _250  and  _251
REMARK  101  A    between atoms: _254  and  _256
REMARK  102  A    between atoms: _256  and  _257
REMARK  103  A    between atoms: _259  and  _261
REMARK  104  A    between atoms: _261  and  _262
REMARK  105  A    between atoms: _261  and  _264
REMARK  106  A    between atoms: _264  and  _265
REMARK  107  A    between atoms: _270  and  _272
REMARK  108  A    between atoms: _272  and  _273
REMARK  109  A    between atoms: _272  and  _275
REMARK  110  A    between atoms: _275  and  _276
REMARK  111  A    between atoms: _276  and  _277
REMARK  112  A    between atoms: _280  and  _282
REMARK  113  A    between atoms: _282  and  _283
REMARK  114  A    between atoms: _282  and  _285
REMARK  115  A    between atoms: _285  and  _286
REMARK  116  A    between atoms: _288  and  _290
REMARK  117  A    between atoms: _290  and  _291
REMARK  118  A    between atoms: _290  and  _293
REMARK  119  A    between atoms: _293  and  _294
REMARK  120  A    between atoms: _300  and  _302
REMARK  121  A    between atoms: _302  and  _303
REMARK  122  A    between atoms: _302  and  _305
REMARK  123  A    between atoms: _308  and  _310
REMARK  124  A    between atoms: _310  and  _311
REMARK  125  A    between atoms: _310  and  _313
REMARK  126  A    between atoms: _313  and  _314
REMARK  127  A    between atoms: _317  and  _319
REMARK  128  A    between atoms: _319  and  _320
REMARK  129  A    between atoms: _319  and  _322
REMARK  130  A    between atoms: _322  and  _323
REMARK  131  A    between atoms: _326  and  _328
REMARK  132  A    between atoms: _328  and  _329
REMARK  133  A    between atoms: _328  and  _331
REMARK  134  A    between atoms: _331  and  _332
REMARK  135  A    between atoms: _335  and  _337
REMARK  136  A    between atoms: _337  and  _338
REMARK  137  A    between atoms: _337  and  _340
REMARK  138  A    between atoms: _340  and  _341
REMARK  139  A    between atoms: _344  and  _346
REMARK  140  A    between atoms: _346  and  _347
REMARK  141  A    between atoms: _346  and  _349
REMARK  142  A    between atoms: _349  and  _350
REMARK  143  A    between atoms: _355  and  _356
REMARK  144  A    between atoms: _358  and  _360
REMARK  145  A    between atoms: _360  and  _361
REMARK  146  A    between atoms: _360  and  _363
REMARK  147  A    between atoms: _363  and  _364
REMARK  148  A    between atoms: _369  and  _370
REMARK  149  A    between atoms: _372  and  _374
REMARK  150  A    between atoms: _374  and  _375
REMARK  151  A    between atoms: _374  and  _377
REMARK  152  A    between atoms: _377  and  _378
REMARK  153  A    between atoms: _381  and  _383
REMARK  154  A    between atoms: _383  and  _384
REMARK  155  A    between atoms: _383  and  _386
REMARK  156  A    between atoms: _386  and  _387
REMARK  157  A    between atoms: _387  and  _388
REMARK  158  A    between atoms: _393  and  _395
REMARK  159  A    between atoms: _395  and  _396
REMARK  160  A    between atoms: _395  and  _398
REMARK  161  A    between atoms: _401  and  _403
REMARK  162  A    between atoms: _403  and  _404
REMARK  163  A    between atoms: _403  and  _406
REMARK  164  A    between atoms: _406  and  _407
REMARK  165  A    between atoms: _410  and  _412
REMARK  166  A    between atoms: _412  and  _413
REMARK  167  A    between atoms: _412  and  _415
REMARK  168  A    between atoms: _415  and  _416
REMARK  169  A    between atoms: _418  and  _420
REMARK  170  A    between atoms: _420  and  _421
REMARK  171  A    between atoms: _423  and  _425
REMARK  172  A    between atoms: _425  and  _426
REMARK  173  A    between atoms: _425  and  _428
REMARK  174  A    between atoms: _428  and  _429
REMARK  175  A    between atoms: _434  and  _435
REMARK  176  A    between atoms: _437  and  _439
REMARK  177  A    between atoms: _439  and  _440
REMARK  178  A    between atoms: _439  and  _442
REMARK  179  A    between atoms: _442  and  _443
REMARK  180  A    between atoms: _443  and  _444
REMARK  181  A    between atoms: _449  and  _451
REMARK  182  A    between atoms: _451  and  _452
REMARK  183  A    between atoms: _451  and  _454
REMARK  184  A    between atoms: _454  and  _455
REMARK  185  A    between atoms: _455  and  _456
REMARK  186  A    between atoms: _461  and  _463
REMARK  187  A    between atoms: _463  and  _464
REMARK  188  A    between atoms: _463  and  _466
REMARK  189  A    between atoms: _466  and  _467
REMARK  190  A    between atoms: _472  and  _473
REMARK  191  A    between atoms: _475  and  _477
REMARK  192  A    between atoms: _477  and  _478
REMARK  193  A    between atoms: _481  and  _483
REMARK  194  A    between atoms: _483  and  _484
REMARK  195  A    between atoms: _483  and  _486
REMARK  196  A    between atoms: _486  and  _487
REMARK  197  A    between atoms: _492  and  _493
REMARK  198  A    between atoms: _495  and  _497
REMARK  199  A    between atoms: _497  and  _498
REMARK  200  A    between atoms: _497  and  _500
REMARK  201  A    between atoms: _500  and  _501
REMARK  202  A    between atoms: _506  and  _507
REMARK  203  A    between atoms: _509  and  _511
REMARK  204  A    between atoms: _511  and  _512
REMARK  205  A    between atoms: _511  and  _514
REMARK  206  A    between atoms: _514  and  _515
REMARK  207  A    between atoms: _518  and  _520
REMARK  208  A    between atoms: _520  and  _521
REMARK  209  A    between atoms: _520  and  _523
REMARK  210  A    between atoms: _523  and  _524
REMARK  211  A    between atoms: _534  and  _536
REMARK  212  A    between atoms: _536  and  _537
REMARK  213  A    between atoms: _540  and  _542
REMARK  214  A    between atoms: _542  and  _543
REMARK  215  A    between atoms: _546  and  _548
REMARK  216  A    between atoms: _548  and  _549
REMARK  217  A    between atoms: _548  and  _551
REMARK  218  A    between atoms: _551  and  _552
REMARK  219  A    between atoms: _555  and  _557
REMARK  220  A    between atoms: _557  and  _558
REMARK  221  A    between atoms: _557  and  _560
REMARK  222  A    between atoms: _560  and  _561
REMARK  223  A    between atoms: _564  and  _566
REMARK  224  A    between atoms: _566  and  _567
REMARK  225  A    between atoms: _566  and  _569
REMARK  226  A    between atoms: _569  and  _570
REMARK  227  A    between atoms: _573  and  _575
REMARK  228  A    between atoms: _575  and  _576
REMARK  229  A    between atoms: _575  and  _578
REMARK  230  A    between atoms: _578  and  _579
REMARK  231  A    between atoms: _579  and  _580
REMARK  232  A    between atoms: _580  and  _581
REMARK  233  A    between atoms: _581  and  _582
REMARK  234  A    between atoms: _586  and  _588
REMARK  235  A    between atoms: _588  and  _589
REMARK  236  A    between atoms: _588  and  _591
REMARK  237  A    between atoms: _591  and  _592
REMARK  238  A    between atoms: _597  and  _599
REMARK  239  A    between atoms: _599  and  _600
REMARK  240  A    between atoms: _599  and  _602
REMARK  241  A    between atoms: _602  and  _603
REMARK  242  A    between atoms: _603  and  _604
REMARK  243  A    between atoms: _604  and  _605
REMARK  244  A    between atoms: _605  and  _606
REMARK  245  A    between atoms: _610  and  _612
REMARK  246  A    between atoms: _612  and  _613
REMARK  247  A    between atoms: _612  and  _615
REMARK  248  A    between atoms: _615  and  _616
REMARK  249  A    between atoms: _626  and  _628
REMARK  250  A    between atoms: _628  and  _629
REMARK  251  A    between atoms: _628  and  _631
REMARK  252  A    between atoms: _631  and  _632
REMARK  253  A    between atoms: _632  and  _633
REMARK  254  A    between atoms: _636  and  _638
REMARK  255  A    between atoms: _638  and  _639
REMARK  256  A    between atoms: _642  and  _644
REMARK  257  A    between atoms: _644  and  _645
REMARK  258  A    between atoms: _647  and  _649
REMARK  259  A    between atoms: _649  and  _650
REMARK  260  A    between atoms: _649  and  _652
REMARK  261  A    between atoms: _652  and  _653
REMARK  262  A    between atoms: _653  and  _654
REMARK  263  A    between atoms: _657  and  _659
REMARK  264  A    between atoms: _659  and  _660
REMARK  265  A    between atoms: _663  and  _665
REMARK  266  A    between atoms: _665  and  _666
REMARK  267  A    between atoms: _665  and  _668
REMARK  268  A    between atoms: _668  and  _669
REMARK  269  A    between atoms: _669  and  _670
REMARK  270  A    between atoms: _673  and  _675
REMARK  271  A    between atoms: _675  and  _676
REMARK  272  A    between atoms: _675  and  _678
REMARK  273  A    between atoms: _678  and  _679
REMARK  274  A    between atoms: _679  and  _680
REMARK  275  A    between atoms: _680  and  _681
REMARK  276  A    between atoms: _690  and  _692
REMARK  277  A    between atoms: _692  and  _693
REMARK  278  A    between atoms: _692  and  _695
REMARK  279  A    between atoms: _695  and  _696
REMARK  280  A    between atoms: _699  and  _701
REMARK  281  A    between atoms: _701  and  _702
REMARK  282  A    between atoms: _701  and  _704
REMARK  283  A    between atoms: _704  and  _705
REMARK  284  A    between atoms: _705  and  _706
REMARK  285  A    between atoms: _706  and  _707
REMARK  286  A    between atoms: _716  and  _718
REMARK  287  A    between atoms: _718  and  _719
REMARK  288  A    between atoms: _722  and  _724
REMARK  289  A    between atoms: _724  and  _725
REMARK  290  A    between atoms: _724  and  _727
REMARK  291  A    between atoms: _727  and  _728
REMARK  292  A    between atoms: _733  and  _734
REMARK  293  A    between atoms: _736  and  _738
REMARK  294  A    between atoms: _738  and  _739
REMARK  295  A    between atoms: _738  and  _741
REMARK  296  A    between atoms: _741  and  _742
REMARK  297  A    between atoms: _745  and  _747
REMARK  298  A    between atoms: _747  and  _748
REMARK  299  A    between atoms: _747  and  _750
REMARK  300  A    between atoms: _750  and  _751
REMARK  301  A    between atoms: _754  and  _756
REMARK  302  A    between atoms: _756  and  _757
REMARK  303  A    between atoms: _756  and  _759
REMARK  304  A    between atoms: _761  and  _763
REMARK  305  A    between atoms: _763  and  _764
REMARK  306  A    between atoms: _763  and  _766
REMARK  307  A    between atoms: _769  and  _771
REMARK  308  A    between atoms: _771  and  _772
REMARK  309  A    between atoms: _771  and  _774
REMARK  310  A    between atoms: _774  and  _775
REMARK  311  A    between atoms: _775  and  _776
REMARK  312  A    between atoms: _779  and  _781
REMARK  313  A    between atoms: _781  and  _782
REMARK  314  A    between atoms: _781  and  _784
REMARK  315  A    between atoms: _784  and  _785
REMARK  316  A    between atoms: _795  and  _797
REMARK  317  A    between atoms: _797  and  _798
REMARK  318  A    between atoms: _797  and  _800
REMARK  319  A    between atoms: _800  and  _801
REMARK  320  A    between atoms: _804  and  _806
REMARK  321  A    between atoms: _806  and  _807
REMARK  322  A    between atoms: _806  and  _809
REMARK  323  A    between atoms: _809  and  _810
REMARK  324  A    between atoms: _810  and  _811
REMARK  325  A    between atoms: _811  and  _812
REMARK  326  A    between atoms: _821  and  _823
REMARK  327  A    between atoms: _823  and  _824
REMARK  328  A    between atoms: _823  and  _826
REMARK  329  A    between atoms: _826  and  _827
REMARK  330  A    between atoms: _832  and  _833
REMARK                            x       y       z     vdW  Elec       q    Type
REMARK                         _______ _______ _______ _____ _____    ______ ____
ROOT
ATOM      1  CA  PHE A   1      48.338  48.862   9.483  0.00  0.00    +0.149 C 
ENDROOT
BRANCH   1   2
ATOM      2  C   PHE A   1      47.152  49.847   9.563  0.00  0.00    +0.239 C 
ATOM      3  O   PHE A   1      46.950  50.476  10.598  0.00  0.00    -0.274 OA
ATOM      4  N   VAL A   2      46.373  49.957   8.488  0.00  0.00    -0.298 N 
ATOM      5  H   VAL A   2      46.616  49.415   7.634  0.00  0.00    +0.150 HD
BRANCH   4   6
ATOM      6  CA  VAL A   2      45.174  50.823   8.467  0.00  0.00    +0.137 C 
BRANCH   6   7
ATOM      7  CB  VAL A   2      45.479  52.280   7.982  0.00  0.00    +0.026 C 
ATOM      8  CG2 VAL A   2      46.322  53.028   9.006  0.00  0.00    +0.002 C 
ATOM      9  CG1 VAL A   2      46.160  52.249   6.625  0.00  0.00    +0.002 C 
ENDBRANCH   6   7
BRANCH   6  10
ATOM     10  C   VAL A   2      44.108  50.268   7.515  0.00  0.00    +0.227 C 
ATOM     11  O   VAL A   2      44.413  49.501   6.603  0.00  0.00    -0.286 OA
ENDBRANCH   6  10
ENDBRANCH   4   6
ENDBRANCH   1   2
BRANCH   1  12
ATOM     12  N   PHE A   1      48.224  47.848   8.434  0.00  0.00    -0.238 NA
ATOM     13  H   PHE A   1      48.029  48.126   7.451  0.00  0.00    +0.142 HD
ENDBRANCH   1  12
BRANCH   1  14
ATOM     14  CB  PHE A   1      49.693  49.611   9.388  0.00  0.00    +0.053 C 
BRANCH  14  15
ATOM     15  CG  PHE A   1      49.755  50.673   8.321  0.00  0.00    -0.020 A 
ATOM     16  CD2 PHE A   1      49.810  52.021   8.679  0.00  0.00    -0.004 A 
ATOM     17  CE2 PHE A   1      49.874  53.018   7.708  0.00  0.00    -0.000 A 
ATOM     18  CZ  PHE A   1      49.885  52.679   6.359  0.00  0.00    -0.000 A 
ATOM     19  CE1 PHE A   1      49.833  51.325   5.983  0.00  0.00    -0.000 A 
ATOM     20  CD1 PHE A   1      49.768  50.336   6.969  0.00  0.00    -0.004 A 
ENDBRANCH  14  15
ENDBRANCH   1  14
TORSDOF 7
REMARK  Name = ../refined-set-2016/1fzm/1fzm_pocket.pdb
REMARK  330 active torsions:
REMARK  status: ('A' for Active; 'I' for Inactive)
REMARK    1  A    between atoms: _1  and  _3
REMARK    2  A    between atoms: _3  and  _4
REMARK    3  A    between atoms: _3  and  _6
REMARK    4  A    between atoms: _6  and  _7
REMARK    5  A    between atoms: _10  and  _12
REMARK    6  A    between atoms: _12  and  _13
REMARK    7  A    between atoms: _12  and  _15
REMARK    8  A    between atoms: _15  and  _16
REMARK    9  A    between atoms: _16  and  _17
REMARK   10  A    between atoms: _17  and  _18
REMARK   11  A    between atoms: _27  and  _29
REMARK   12  A    between atoms: _29  and  _30
REMARK   13  A    between atoms: _29  and  _32
REMARK   14  A    between atoms: _32  and  _33
REMARK   15  A    between atoms: _38  and  _39
REMARK   16  A    between atoms: _41  and  _43
REMARK   17  A    between atoms: _43  and  _44
REMARK   18  A    between atoms: _43  and  _46
REMARK   19  A    between atoms: _46  and  _47
REMARK   20  A    between atoms: _53  and  _55
REMARK   21  A    between atoms: _55  and  _56
REMARK   22  A    between atoms: _55  and  _58
REMARK   23  A    between atoms: _61  and  _63
REMARK   24  A    between atoms: _63  and  _64
REMARK   25  A    between atoms: _63  and  _66
REMARK   26  A    between atoms: _66  and  _67
REMARK   27  A    between atoms: _70  and  _72
REMARK   28  A    between atoms: _72  and  _73
REMARK   29  A    between atoms: _72  and  _75
REMARK   30  A    between atoms: _75  and  _76
REMARK   31  A    between atoms: _82  and  _84
REMARK   32  A    between atoms: _84  and  _85
REMARK   33  A    between atoms: _84  and  _87
REMARK   34  A    between atoms: _87  and  _88
REMARK   35  A    between atoms: _90  and  _92
REMARK   36  A    between atoms: _92  and  _93
REMARK   37  A    between atoms: _92  and  _95
REMARK   38  A    between atoms: _98  and  _100
REMARK   39  A    between atoms: _100  and  _101
REMARK   40  A    between atoms: _100  and  _103
REMARK   41  A    between atoms: _103  and  _104
REMARK   42  A    between atoms: _110  and  _112
REMARK   43  A    between atoms: _112  and  _113
REMARK   44  A    between atoms: _112  and  _115
REMARK   45  A    between atoms: _118  and  _120
REMARK   46  A    between atoms: _120  and  _121
REMARK   47  A    between atoms: _120  and  _123
REMARK   48  A    between atoms: _123  and  _124
REMARK   49  A    between atoms: _129  and  _130
REMARK   50  A    between atoms: _132  and  _134
REMARK   51  A    between atoms: _134  and  _135
REMARK   52  A    between atoms: _134  and  _137
REMARK   53  A    between atoms: _137  and  _138
REMARK   54  A    between atoms: _138  and  _139
REMARK   55  A    between atoms: _141  and  _143
REMARK   56  A    between atoms: _143  and  _144
REMARK   57  A    between atoms: _143  and  _146
REMARK   58  A    between atoms: _146  and  _147
REMARK   59  A    between atoms: _147  and  _148
REMARK   60  A    between atoms: _151  and  _153
REMARK   61  A    between atoms: _153  and  _154
REMARK   62  A    between atoms: _156  and  _158
REMARK   63  A    between atoms: _158  and  _159
REMARK   64  A    between atoms: _158  and  _161
REMARK   65  A    between atoms: _161  and  _162
REMARK   66  A    between atoms: _162  and  _163
REMARK   67  A    between atoms: _166  and  _168
REMARK   68  A    between atoms: _168  and  _169
REMARK   69  A    between atoms: _168  and  _171
REMARK   70  A    between atoms: _171  and  _172
REMARK   71  A    between atoms: _177  and  _178
REMARK   72  A    between atoms: _180  and  _182
REMARK   73  A    between atoms: _182  and  _183
REMARK   74  A    between atoms: _182  and  _185
REMARK   75  A    between atoms: _185  and  _186
REMARK   76  A    between atoms: _196  and  _198
REMARK   77  A    between atoms: _198  and  _199
REMARK   78  A    between atoms: _198  and  _201
REMARK   79  A    between atoms: _201  and  _202
REMARK   80  A    between atoms: _202  and  _203
REMARK   81  A    between atoms: _203  and  _204
REMARK   82  A    between atoms: _213  and  _215
REMARK   83  A    between atoms: _215  and  _216
REMARK   84  A    between atoms: _215  and  _218
REMARK   85  A    between atoms: _218  and  _219
REMARK   86  A    between atoms: _219  and  _220
REMARK   87  A    between atoms: _223  and  _225
REMARK   88  A    between atoms: _225  and  _226
REMARK   89  A    between atoms: _225  and  _228
REMARK   90  A    between atoms: _228  and  _229
REMARK   91  A    between atoms: _229  and  _230
REMARK   92  A    between atoms: _235  and  _237
REMARK   93  A    between atoms: _237  and  _238
REMARK   94  A    between atoms: _237  and  _240
REMARK   95  A    between atoms: _240  and  _241
REMARK   96  A    between atoms: _241  and  _242
REMARK   97  A    between atoms: _242  and  _243
REMARK   98  A    between atoms: _243  and  _244
REMARK   99  A    between atoms: _248  and  _250
REMARK  100  A    between atoms: _250  and  _251
REMARK  101  A    between atoms: _254  and  _256
REMARK  102  A    between atoms: _256  and  _257
REMARK  103  A    between atoms: _259  and  _261
REMARK  104  A    between atoms: _261  and  _262
REMARK  105  A    between atoms: _261  and  _264
REMARK  106  A    between atoms: _264  and  _265
REMARK  107  A    between atoms: _270  and  _272
REMARK  108  A    between atoms: _272  and  _273
REMARK  109  A    between atoms: _272  and  _275
REMARK  110  A    between atoms: _275  and  _276
REMARK  111  A    between atoms: _276  and  _277
REMARK  112  A    between atoms: _280  and  _282
REMARK  113  A    between atoms: _282  and  _283
REMARK  114  A    between atoms: _282  and  _285
REMARK  115  A    between atoms: _285  and  _286
REMARK  116  A    between atoms: _288  and  _290
REMARK  117  A    between atoms: _290  and  _291
REMARK  118  A    between atoms: _290  and  _293
REMARK  119  A    between atoms: _293  and  _294
REMARK  120  A    between atoms: _300  and  _302
REMARK  121  A    between atoms: _302  and  _303
REMARK  122  A    between atoms: _302  and  _305
REMARK  123  A    between atoms: _308  and  _310
REMARK  124  A    between atoms: _310  and  _311
REMARK  125  A    between atoms: _310  and  _313
REMARK  126  A    between atoms: _313  and  _314
REMARK  127  A    between atoms: _317  and  _319
REMARK  128  A    between atoms: _319  and  _320
REMARK  129  A    between atoms: _319  and  _322
REMARK  130  A    between atoms: _322  and  _323
REMARK  131  A    between atoms: _326  and  _328
REMARK  132  A    between atoms: _328  and  _329
REMARK  133  A    between atoms: _328  and  _331
REMARK  134  A    between atoms: _331  and  _332
REMARK  135  A    between atoms: _335  and  _337
REMARK  136  A    between atoms: _337  and  _338
REMARK  137  A    between atoms: _337  and  _340
REMARK  138  A    between atoms: _340  and  _341
REMARK  139  A    between atoms: _344  and  _346
REMARK  140  A    between atoms: _346  and  _347
REMARK  141  A    between atoms: _346  and  _349
REMARK  142  A    between atoms: _349  and  _350
REMARK  143  A    between atoms: _355  and  _356
REMARK  144  A    between atoms: _358  and  _360
REMARK  145  A    between atoms: _360  and  _361
REMARK  146  A    between atoms: _360  and  _363
REMARK  147  A    between atoms: _363  and  _364
REMARK  148  A    between atoms: _369  and  _370
REMARK  149  A    between atoms: _372  and  _374
REMARK  150  A    between atoms: _374  and  _375
REMARK  151  A    between atoms: _374  and  _377
REMARK  152  A    between atoms: _377  and  _378
REMARK  153  A    between atoms: _381  and  _383
REMARK  154  A    between atoms: _383  and  _384
REMARK  155  A    between atoms: _383  and  _386
REMARK  156  A    between atoms: _386  and  _387
REMARK  157  A    between atoms: _387  and  _388
REMARK  158  A    between atoms: _393  and  _395
REMARK  159  A    between atoms: _395  and  _396
REMARK  160  A    between atoms: _395  and  _398
REMARK  161  A    between atoms: _401  and  _403
REMARK  162  A    between atoms: _403  and  _404
REMARK  163  A    between atoms: _403  and  _406
REMARK  164  A    between atoms: _406  and  _407
REMARK  165  A    between atoms: _410  and  _412
REMARK  166  A    between atoms: _412  and  _413
REMARK  167  A    between atoms: _412  and  _415
REMARK  168  A    between atoms: _415  and  _416
REMARK  169  A    between atoms: _418  and  _420
REMARK  170  A    between atoms: _420  and  _421
REMARK  171  A    between atoms: _423  and  _425
REMARK  172  A    between atoms: _425  and  _426
REMARK  173  A    between atoms: _425  and  _428
REMARK  174  A    between atoms: _428  and  _429
REMARK  175  A    between atoms: _434  and  _435
REMARK  176  A    between atoms: _437  and  _439
REMARK  177  A    between atoms: _439  and  _440
REMARK  178  A    between atoms: _439  and  _442
REMARK  179  A    between atoms: _442  and  _443
REMARK  180  A    between atoms: _443  and  _444
REMARK  181  A    between atoms: _449  and  _451
REMARK  182  A    between atoms: _451  and  _452
REMARK  183  A    between atoms: _451  and  _454
REMARK  184  A    between atoms: _454  and  _455
REMARK  185  A    between atoms: _455  and  _456
REMARK  186  A    between atoms: _461  and  _463
REMARK  187  A    between atoms: _463  and  _464
REMARK  188  A    between atoms: _463  and  _466
REMARK  189  A    between atoms: _466  and  _467
REMARK  190  A    between atoms: _472  and  _473
REMARK  191  A    between atoms: _475  and  _477
REMARK  192  A    between atoms: _477  and  _478
REMARK  193  A    between atoms: _481  and  _483
REMARK  194  A    between atoms: _483  and  _484
REMARK  195  A    between atoms: _483  and  _486
REMARK  196  A    between atoms: _486  and  _487
REMARK  197  A    between atoms: _492  and  _493
REMARK  198  A    between atoms: _495  and  _497
REMARK  199  A    between atoms: _497  and  _498
REMARK  200  A    between atoms: _497  and  _500
REMARK  201  A    between atoms: _500  and  _501
REMARK  202  A    between atoms: _506  and  _507
REMARK  203  A    between atoms: _509  and  _511
REMARK  204  A    between atoms: _511  and  _512
REMARK  205  A    between atoms: _511  and  _514
REMARK  206  A    between atoms: _514  and  _515
REMARK  207  A    between atoms: _518  and  _520
REMARK  208  A    between atoms: _520  and  _521
REMARK  209  A    between atoms: _520  and  _523
REMARK  210  A    between atoms: _523  and  _524
REMARK  211  A    between atoms: _534  and  _536
REMARK  212  A    between atoms: _536  and  _537
REMARK  213  A    between atoms: _540  and  _542
REMARK  214  A    between atoms: _542  and  _543
REMARK  215  A    between atoms: _546  and  _548
REMARK  216  A    between atoms: _548  and  _549
REMARK  217  A    between atoms: _548  and  _551
REMARK  218  A    between atoms: _551  and  _552
REMARK  219  A    between atoms: _555  and  _557
REMARK  220  A    between atoms: _557  and  _558
REMARK  221  A    between atoms: _557  and  _560
REMARK  222  A    between atoms: _560  and  _561
REMARK  223  A    between atoms: _564  and  _566
REMARK  224  A    between atoms: _566  and  _567
REMARK  225  A    between atoms: _566  and  _569
REMARK  226  A    between atoms: _569  and  _570
REMARK  227  A    between atoms: _573  and  _575
REMARK  228  A    between atoms: _575  and  _576
REMARK  229  A    between atoms: _575  and  _578
REMARK  230  A    between atoms: _578  and  _579
REMARK  231  A    between atoms: _579  and  _580
REMARK  232  A    between atoms: _580  and  _581
REMARK  233  A    between atoms: _581  and  _582
REMARK  234  A    between atoms: _586  and  _588
REMARK  235  A    between atoms: _588  and  _589
REMARK  236  A    between atoms: _588  and  _591
REMARK  237  A    between atoms: _591  and  _592
REMARK  238  A    between atoms: _597  and  _599
REMARK  239  A    between atoms: _599  and  _600
REMARK  240  A    between atoms: _599  and  _602
REMARK  241  A    between atoms: _602  and  _603
REMARK  242  A    between atoms: _603  and  _604
REMARK  243  A    between atoms: _604  and  _605
REMARK  244  A    between atoms: _605  and  _606
REMARK  245  A    between atoms: _610  and  _612
REMARK  246  A    between atoms: _612  and  _613
REMARK  247  A    between atoms: _612  and  _615
REMARK  248  A    between atoms: _615  and  _616
REMARK  249  A    between atoms: _626  and  _628
REMARK  250  A    between atoms: _628  and  _629
REMARK  251  A    between atoms: _628  and  _631
REMARK  252  A    between atoms: _631  and  _632
REMARK  253  A    between atoms: _632  and  _633
REMARK  254  A    between atoms: _636  and  _638
REMARK  255  A    between atoms: _638  and  _639
REMARK  256  A    between atoms: _642  and  _644
REMARK  257  A    between atoms: _644  and  _645
REMARK  258  A    between atoms: _647  and  _649
REMARK  259  A    between atoms: _649  and  _650
REMARK  260  A    between atoms: _649  and  _652
REMARK  261  A    between atoms: _652  and  _653
REMARK  262  A    between atoms: _653  and  _654
REMARK  263  A    between atoms: _657  and  _659
REMARK  264  A    between atoms: _659  and  _660
REMARK  265  A    between atoms: _663  and  _665
REMARK  266  A    between atoms: _665  and  _666
REMARK  267  A    between atoms: _665  and  _668
REMARK  268  A    between atoms: _668  and  _669
REMARK  269  A    between atoms: _669  and  _670
REMARK  270  A    between atoms: _673  and  _675
REMARK  271  A    between atoms: _675  and  _676
REMARK  272  A    between atoms: _675  and  _678
REMARK  273  A    between atoms: _678  and  _679
REMARK  274  A    between atoms: _679  and  _680
REMARK  275  A    between atoms: _680  and  _681
REMARK  276  A    between atoms: _690  and  _692
REMARK  277  A    between atoms: _692  and  _693
REMARK  278  A    between atoms: _692  and  _695
REMARK  279  A    between atoms: _695  and  _696
REMARK  280  A    between atoms: _699  and  _701
REMARK  281  A    between atoms: _701  and  _702
REMARK  282  A    between atoms: _701  and  _704
REMARK  283  A    between atoms: _704  and  _705
REMARK  284  A    between atoms: _705  and  _706
REMARK  285  A    between atoms: _706  and  _707
REMARK  286  A    between atoms: _716  and  _718
REMARK  287  A    between atoms: _718  and  _719
REMARK  288  A    between atoms: _722  and  _724
REMARK  289  A    between atoms: _724  and  _725
REMARK  290  A    between atoms: _724  and  _727
REMARK  291  A    between atoms: _727  and  _728
REMARK  292  A    between atoms: _733  and  _734
REMARK  293  A    between atoms: _736  and  _738
REMARK  294  A    between atoms: _738  and  _739
REMARK  295  A    between atoms: _738  and  _741
REMARK  296  A    between atoms: _741  and  _742
REMARK  297  A    between atoms: _745  and  _747
REMARK  298  A    between atoms: _747  and  _748
REMARK  299  A    between atoms: _747  and  _750
REMARK  300  A    between atoms: _750  and  _751
REMARK  301  A    between atoms: _754  and  _756
REMARK  302  A    between atoms: _756  and  _757
REMARK  303  A    between atoms: _756  and  _759
REMARK  304  A    between atoms: _761  and  _763
REMARK  305  A    between atoms: _763  and  _764
REMARK  306  A    between atoms: _763  and  _766
REMARK  307  A    between atoms: _769  and  _771
REMARK  308  A    between atoms: _771  and  _772
REMARK  309  A    between atoms: _771  and  _774
REMARK  310  A    between atoms: _774  and  _775
REMARK  311  A    between atoms: _775  and  _776
REMARK  312  A    between atoms: _779  and  _781
REMARK  313  A    between atoms: _781  and  _782
REMARK  314  A    between atoms: _781  and  _784
REMARK  315  A    between atoms: _784  and  _785
REMARK  316  A    between atoms: _795  and  _797
REMARK  317  A    between atoms: _797  and  _798
REMARK  318  A    between atoms: _797  and  _800
REMARK  319  A    between atoms: _800  and  _801
REMARK  320  A    between atoms: _804  and  _806
REMARK  321  A    between atoms: _806  and  _807
REMARK  322  A    between atoms: _806  and  _809
REMARK  323  A    between atoms: _809  and  _810
REMARK  324  A    between atoms: _810  and  _811
REMARK  325  A    between atoms: _811  and  _812
REMARK  326  A    between atoms: _821  and  _823
REMARK  327  A    between atoms: _823  and  _824
REMARK  328  A    between atoms: _823  and  _826
REMARK  329  A    between atoms: _826  and  _827
REMARK  330  A    between atoms: _832  and  _833
REMARK                            x       y       z     vdW  Elec       q    Type
REMARK                         _______ _______ _______ _____ _____    ______ ____
ROOT
ATOM      1  CG  TYR A   1      41.535  55.347   6.929  0.00  0.00    -0.020 A 
ATOM      2  CD2 TYR A   1      42.133  54.082   6.947  0.00  0.00    -0.001 A 
ATOM      3  CE2 TYR A   1      42.695  53.532   5.793  0.00  0.00    +0.036 A 
ATOM      4  CZ  TYR A   1      42.664  54.245   4.610  0.00  0.00    +0.134 A 
ATOM      5  CE1 TYR A   1      42.079  55.504   4.568  0.00  0.00    +0.036 A 
ATOM      6  CD1 TYR A   1      41.518  56.046   5.727  0.00  0.00    -0.001 A 
ENDROOT
BRANCH   4   7
ATOM      7  OH  TYR A   1      43.207  53.692   3.469  0.00  0.00    -0.506 OA
ATOM      8  HH  TYR A   1      42.503  53.604   2.779  0.00  0.00    +0.292 HD
ENDBRANCH   4   7
BRANCH   1   9
ATOM      9  CB  TYR A   1      40.901  55.922   8.176  0.00  0.00    +0.051 C 
BRANCH   9  10
ATOM     10  CA  TYR A   1      39.855  54.982   8.790  0.00  0.00    +0.137 C 
BRANCH  10  11
ATOM     11  N   TYR A   1      38.588  55.664   9.036  0.00  0.00    -0.239 NA
ATOM     12  H   TYR A   1      38.545  56.703   9.042  0.00  0.00    +0.142 HD
ENDBRANCH  10  11
BRANCH  10  13
ATOM     13  C   TYR A   1      40.278  54.535  10.184  0.00  0.00    +0.224 C 
ATOM     14  O   TYR A   1      40.253  55.324  11.126  0.00  0.00    -0.287 OA
ENDBRANCH  10  13
ENDBRANCH   9  10
ENDBRANCH   1   9
TORSDOF 5
REMARK  Name = ../refined-set-2016/1fzm/1fzm_pocket.pdb
REMARK  330 active torsions:
REMARK  status: ('A' for Active; 'I' for Inactive)
REMARK    1  A    between atoms: _1  and  _3
REMARK    2  A    between atoms: _3  and  _4
REMARK    3  A    between atoms: _3  and  _6
REMARK    4  A    between atoms: _6  and  _7
REMARK    5  A    between atoms: _10  and  _12
REMARK    6  A    between atoms: _12  and  _13
REMARK    7  A    between atoms: _12  and  _15
REMARK    8  A    between atoms: _15  and  _16
REMARK    9  A    between atoms: _16  and  _17
REMARK   10  A    between atoms: _17  and  _18
REMARK   11  A    between atoms: _27  and  _29
REMARK   12  A    between atoms: _29  and  _30
REMARK   13  A    between atoms: _29  and  _32
REMARK   14  A    between atoms: _32  and  _33
REMARK   15  A    between atoms: _38  and  _39
REMARK   16  A    between atoms: _41  and  _43
REMARK   17  A    between atoms: _43  and  _44
REMARK   18  A    between atoms: _43  and  _46
REMARK   19  A    between atoms: _46  and  _47
REMARK   20  A    between atoms: _53  and  _55
REMARK   21  A    between atoms: _55  and  _56
REMARK   22  A    between atoms: _55  and  _58
REMARK   23  A    between atoms: _61  and  _63
REMARK   24  A    between atoms: _63  and  _64
REMARK   25  A    between atoms: _63  and  _66
REMARK   26  A    between atoms: _66  and  _67
REMARK   27  A    between atoms: _70  and  _72
REMARK   28  A    between atoms: _72  and  _73
REMARK   29  A    between atoms: _72  and  _75
REMARK   30  A    between atoms: _75  and  _76
REMARK   31  A    between atoms: _82  and  _84
REMARK   32  A    between atoms: _84  and  _85
REMARK   33  A    between atoms: _84  and  _87
REMARK   34  A    between atoms: _87  and  _88
REMARK   35  A    between atoms: _90  and  _92
REMARK   36  A    between atoms: _92  and  _93
REMARK   37  A    between atoms: _92  and  _95
REMARK   38  A    between atoms: _98  and  _100
REMARK   39  A    between atoms: _100  and  _101
REMARK   40  A    between atoms: _100  and  _103
REMARK   41  A    between atoms: _103  and  _104
REMARK   42  A    between atoms: _110  and  _112
REMARK   43  A    between atoms: _112  and  _113
REMARK   44  A    between atoms: _112  and  _115
REMARK   45  A    between atoms: _118  and  _120
REMARK   46  A    between atoms: _120  and  _121
REMARK   47  A    between atoms: _120  and  _123
REMARK   48  A    between atoms: _123  and  _124
REMARK   49  A    between atoms: _129  and  _130
REMARK   50  A    between atoms: _132  and  _134
REMARK   51  A    between atoms: _134  and  _135
REMARK   52  A    between atoms: _134  and  _137
REMARK   53  A    between atoms: _137  and  _138
REMARK   54  A    between atoms: _138  and  _139
REMARK   55  A    between atoms: _141  and  _143
REMARK   56  A    between atoms: _143  and  _144
REMARK   57  A    between atoms: _143  and  _146
REMARK   58  A    between atoms: _146  and  _147
REMARK   59  A    between atoms: _147  and  _148
REMARK   60  A    between atoms: _151  and  _153
REMARK   61  A    between atoms: _153  and  _154
REMARK   62  A    between atoms: _156  and  _158
REMARK   63  A    between atoms: _158  and  _159
REMARK   64  A    between atoms: _158  and  _161
REMARK   65  A    between atoms: _161  and  _162
REMARK   66  A    between atoms: _162  and  _163
REMARK   67  A    between atoms: _166  and  _168
REMARK   68  A    between atoms: _168  and  _169
REMARK   69  A    between atoms: _168  and  _171
REMARK   70  A    between atoms: _171  and  _172
REMARK   71  A    between atoms: _177  and  _178
REMARK   72  A    between atoms: _180  and  _182
REMARK   73  A    between atoms: _182  and  _183
REMARK   74  A    between atoms: _182  and  _185
REMARK   75  A    between atoms: _185  and  _186
REMARK   76  A    between atoms: _196  and  _198
REMARK   77  A    between atoms: _198  and  _199
REMARK   78  A    between atoms: _198  and  _201
REMARK   79  A    between atoms: _201  and  _202
REMARK   80  A    between atoms: _202  and  _203
REMARK   81  A    between atoms: _203  and  _204
REMARK   82  A    between atoms: _213  and  _215
REMARK   83  A    between atoms: _215  and  _216
REMARK   84  A    between atoms: _215  and  _218
REMARK   85  A    between atoms: _218  and  _219
REMARK   86  A    between atoms: _219  and  _220
REMARK   87  A    between atoms: _223  and  _225
REMARK   88  A    between atoms: _225  and  _226
REMARK   89  A    between atoms: _225  and  _228
REMARK   90  A    between atoms: _228  and  _229
REMARK   91  A    between atoms: _229  and  _230
REMARK   92  A    between atoms: _235  and  _237
REMARK   93  A    between atoms: _237  and  _238
REMARK   94  A    between atoms: _237  and  _240
REMARK   95  A    between atoms: _240  and  _241
REMARK   96  A    between atoms: _241  and  _242
REMARK   97  A    between atoms: _242  and  _243
REMARK   98  A    between atoms: _243  and  _244
REMARK   99  A    between atoms: _248  and  _250
REMARK  100  A    between atoms: _250  and  _251
REMARK  101  A    between atoms: _254  and  _256
REMARK  102  A    between atoms: _256  and  _257
REMARK  103  A    between atoms: _259  and  _261
REMARK  104  A    between atoms: _261  and  _262
REMARK  105  A    between atoms: _261  and  _264
REMARK  106  A    between atoms: _264  and  _265
REMARK  107  A    between atoms: _270  and  _272
REMARK  108  A    between atoms: _272  and  _273
REMARK  109  A    between atoms: _272  and  _275
REMARK  110  A    between atoms: _275  and  _276
REMARK  111  A    between atoms: _276  and  _277
REMARK  112  A    between atoms: _280  and  _282
REMARK  113  A    between atoms: _282  and  _283
REMARK  114  A    between atoms: _282  and  _285
REMARK  115  A    between atoms: _285  and  _286
REMARK  116  A    between atoms: _288  and  _290
REMARK  117  A    between atoms: _290  and  _291
REMARK  118  A    between atoms: _290  and  _293
REMARK  119  A    between atoms: _293  and  _294
REMARK  120  A    between atoms: _300  and  _302
REMARK  121  A    between atoms: _302  and  _303
REMARK  122  A    between atoms: _302  and  _305
REMARK  123  A    between atoms: _308  and  _310
REMARK  124  A    between atoms: _310  and  _311
REMARK  125  A    between atoms: _310  and  _313
REMARK  126  A    between atoms: _313  and  _314
REMARK  127  A    between atoms: _317  and  _319
REMARK  128  A    between atoms: _319  and  _320
REMARK  129  A    between atoms: _319  and  _322
REMARK  130  A    between atoms: _322  and  _323
REMARK  131  A    between atoms: _326  and  _328
REMARK  132  A    between atoms: _328  and  _329
REMARK  133  A    between atoms: _328  and  _331
REMARK  134  A    between atoms: _331  and  _332
REMARK  135  A    between atoms: _335  and  _337
REMARK  136  A    between atoms: _337  and  _338
REMARK  137  A    between atoms: _337  and  _340
REMARK  138  A    between atoms: _340  and  _341
REMARK  139  A    between atoms: _344  and  _346
REMARK  140  A    between atoms: _346  and  _347
REMARK  141  A    between atoms: _346  and  _349
REMARK  142  A    between atoms: _349  and  _350
REMARK  143  A    between atoms: _355  and  _356
REMARK  144  A    between atoms: _358  and  _360
REMARK  145  A    between atoms: _360  and  _361
REMARK  146  A    between atoms: _360  and  _363
REMARK  147  A    between atoms: _363  and  _364
REMARK  148  A    between atoms: _369  and  _370
REMARK  149  A    between atoms: _372  and  _374
REMARK  150  A    between atoms: _374  and  _375
REMARK  151  A    between atoms: _374  and  _377
REMARK  152  A    between atoms: _377  and  _378
REMARK  153  A    between atoms: _381  and  _383
REMARK  154  A    between atoms: _383  and  _384
REMARK  155  A    between atoms: _383  and  _386
REMARK  156  A    between atoms: _386  and  _387
REMARK  157  A    between atoms: _387  and  _388
REMARK  158  A    between atoms: _393  and  _395
REMARK  159  A    between atoms: _395  and  _396
REMARK  160  A    between atoms: _395  and  _398
REMARK  161  A    between atoms: _401  and  _403
REMARK  162  A    between atoms: _403  and  _404
REMARK  163  A    between atoms: _403  and  _406
REMARK  164  A    between atoms: _406  and  _407
REMARK  165  A    between atoms: _410  and  _412
REMARK  166  A    between atoms: _412  and  _413
REMARK  167  A    between atoms: _412  and  _415
REMARK  168  A    between atoms: _415  and  _416
REMARK  169  A    between atoms: _418  and  _420
REMARK  170  A    between atoms: _420  and  _421
REMARK  171  A    between atoms: _423  and  _425
REMARK  172  A    between atoms: _425  and  _426
REMARK  173  A    between atoms: _425  and  _428
REMARK  174  A    between atoms: _428  and  _429
REMARK  175  A    between atoms: _434  and  _435
REMARK  176  A    between atoms: _437  and  _439
REMARK  177  A    between atoms: _439  and  _440
REMARK  178  A    between atoms: _439  and  _442
REMARK  179  A    between atoms: _442  and  _443
REMARK  180  A    between atoms: _443  and  _444
REMARK  181  A    between atoms: _449  and  _451
REMARK  182  A    between atoms: _451  and  _452
REMARK  183  A    between atoms: _451  and  _454
REMARK  184  A    between atoms: _454  and  _455
REMARK  185  A    between atoms: _455  and  _456
REMARK  186  A    between atoms: _461  and  _463
REMARK  187  A    between atoms: _463  and  _464
REMARK  188  A    between atoms: _463  and  _466
REMARK  189  A    between atoms: _466  and  _467
REMARK  190  A    between atoms: _472  and  _473
REMARK  191  A    between atoms: _475  and  _477
REMARK  192  A    between atoms: _477  and  _478
REMARK  193  A    between atoms: _481  and  _483
REMARK  194  A    between atoms: _483  and  _484
REMARK  195  A    between atoms: _483  and  _486
REMARK  196  A    between atoms: _486  and  _487
REMARK  197  A    between atoms: _492  and  _493
REMARK  198  A    between atoms: _495  and  _497
REMARK  199  A    between atoms: _497  and  _498
REMARK  200  A    between atoms: _497  and  _500
REMARK  201  A    between atoms: _500  and  _501
REMARK  202  A    between atoms: _506  and  _507
REMARK  203  A    between atoms: _509  and  _511
REMARK  204  A    between atoms: _511  and  _512
REMARK  205  A    between atoms: _511  and  _514
REMARK  206  A    between atoms: _514  and  _515
REMARK  207  A    between atoms: _518  and  _520
REMARK  208  A    between atoms: _520  and  _521
REMARK  209  A    between atoms: _520  and  _523
REMARK  210  A    between atoms: _523  and  _524
REMARK  211  A    between atoms: _534  and  _536
REMARK  212  A    between atoms: _536  and  _537
REMARK  213  A    between atoms: _540  and  _542
REMARK  214  A    between atoms: _542  and  _543
REMARK  215  A    between atoms: _546  and  _548
REMARK  216  A    between atoms: _548  and  _549
REMARK  217  A    between atoms: _548  and  _551
REMARK  218  A    between atoms: _551  and  _552
REMARK  219  A    between atoms: _555  and  _557
REMARK  220  A    between atoms: _557  and  _558
REMARK  221  A    between atoms: _557  and  _560
REMARK  222  A    between atoms: _560  and  _561
REMARK  223  A    between atoms: _564  and  _566
REMARK  224  A    between atoms: _566  and  _567
REMARK  225  A    between atoms: _566  and  _569
REMARK  226  A    between atoms: _569  and  _570
REMARK  227  A    between atoms: _573  and  _575
REMARK  228  A    between atoms: _575  and  _576
REMARK  229  A    between atoms: _575  and  _578
REMARK  230  A    between atoms: _578  and  _579
REMARK  231  A    between atoms: _579  and  _580
REMARK  232  A    between atoms: _580  and  _581
REMARK  233  A    between atoms: _581  and  _582
REMARK  234  A    between atoms: _586  and  _588
REMARK  235  A    between atoms: _588  and  _589
REMARK  236  A    between atoms: _588  and  _591
REMARK  237  A    between atoms: _591  and  _592
REMARK  238  A    between atoms: _597  and  _599
REMARK  239  A    between atoms: _599  and  _600
REMARK  240  A    between atoms: _599  and  _602
REMARK  241  A    between atoms: _602  and  _603
REMARK  242  A    between atoms: _603  and  _604
REMARK  243  A    between atoms: _604  and  _605
REMARK  244  A    between atoms: _605  and  _606
REMARK  245  A    between atoms: _610  and  _612
REMARK  246  A    between atoms: _612  and  _613
REMARK  247  A    between atoms: _612  and  _615
REMARK  248  A    between atoms: _615  and  _616
REMARK  249  A    between atoms: _626  and  _628
REMARK  250  A    between atoms: _628  and  _629
REMARK  251  A    between atoms: _628  and  _631
REMARK  252  A    between atoms: _631  and  _632
REMARK  253  A    between atoms: _632  and  _633
REMARK  254  A    between atoms: _636  and  _638
REMARK  255  A    between atoms: _638  and  _639
REMARK  256  A    between atoms: _642  and  _644
REMARK  257  A    between atoms: _644  and  _645
REMARK  258  A    between atoms: _647  and  _649
REMARK  259  A    between atoms: _649  and  _650
REMARK  260  A    between atoms: _649  and  _652
REMARK  261  A    between atoms: _652  and  _653
REMARK  262  A    between atoms: _653  and  _654
REMARK  263  A    between atoms: _657  and  _659
REMARK  264  A    between atoms: _659  and  _660
REMARK  265  A    between atoms: _663  and  _665
REMARK  266  A    between atoms: _665  and  _666
REMARK  267  A    between atoms: _665  and  _668
REMARK  268  A    between atoms: _668  and  _669
REMARK  269  A    between atoms: _669  and  _670
REMARK  270  A    between atoms: _673  and  _675
REMARK  271  A    between atoms: _675  and  _676
REMARK  272  A    between atoms: _675  and  _678
REMARK  273  A    between atoms: _678  and  _679
REMARK  274  A    between atoms: _679  and  _680
REMARK  275  A    between atoms: _680  and  _681
REMARK  276  A    between atoms: _690  and  _692
REMARK  277  A    between atoms: _692  and  _693
REMARK  278  A    between atoms: _692  and  _695
REMARK  279  A    between atoms: _695  and  _696
REMARK  280  A    between atoms: _699  and  _701
REMARK  281  A    between atoms: _701  and  _702
REMARK  282  A    between atoms: _701  and  _704
REMARK  283  A    between atoms: _704  and  _705
REMARK  284  A    between atoms: _705  and  _706
REMARK  285  A    between atoms: _706  and  _707
REMARK  286  A    between atoms: _716  and  _718
REMARK  287  A    between atoms: _718  and  _719
REMARK  288  A    between atoms: _722  and  _724
REMARK  289  A    between atoms: _724  and  _725
REMARK  290  A    between atoms: _724  and  _727
REMARK  291  A    between atoms: _727  and  _728
REMARK  292  A    between atoms: _733  and  _734
REMARK  293  A    between atoms: _736  and  _738
REMARK  294  A    between atoms: _738  and  _739
REMARK  295  A    between atoms: _738  and  _741
REMARK  296  A    between atoms: _741  and  _742
REMARK  297  A    between atoms: _745  and  _747
REMARK  298  A    between atoms: _747  and  _748
REMARK  299  A    between atoms: _747  and  _750
REMARK  300  A    between atoms: _750  and  _751
REMARK  301  A    between atoms: _754  and  _756
REMARK  302  A    between atoms: _756  and  _757
REMARK  303  A    between atoms: _756  and  _759
REMARK  304  A    between atoms: _761  and  _763
REMARK  305  A    between atoms: _763  and  _764
REMARK  306  A    between atoms: _763  and  _766
REMARK  307  A    between atoms: _769  and  _771
REMARK  308  A    between atoms: _771  and  _772
REMARK  309  A    between atoms: _771  and  _774
REMARK  310  A    between atoms: _774  and  _775
REMARK  311  A    between atoms: _775  and  _776
REMARK  312  A    between atoms: _779  and  _781
REMARK  313  A    between atoms: _781  and  _782
REMARK  314  A    between atoms: _781  and  _784
REMARK  315  A    between atoms: _784  and  _785
REMARK  316  A    between atoms: _795  and  _797
REMARK  317  A    between atoms: _797  and  _798
REMARK  318  A    between atoms: _797  and  _800
REMARK  319  A    between atoms: _800  and  _801
REMARK  320  A    between atoms: _804  and  _806
REMARK  321  A    between atoms: _806  and  _807
REMARK  322  A    between atoms: _806  and  _809
REMARK  323  A    between atoms: _809  and  _810
REMARK  324  A    between atoms: _810  and  _811
REMARK  325  A    between atoms: _811  and  _812
REMARK  326  A    between atoms: _821  and  _823
REMARK  327  A    between atoms: _823  and  _824
REMARK  328  A    between atoms: _823  and  _826
REMARK  329  A    between atoms: _826  and  _827
REMARK  330  A    between atoms: _832  and  _833
REMARK                            x       y       z     vdW  Elec       q    Type
REMARK                         _______ _______ _______ _____ _____    ______ ____
ROOT
ATOM      1  CA  MET A   1      49.635  53.442  14.884  0.00  0.00    +0.134 C 
ENDROOT
BRANCH   1   2
ATOM      2  N   MET A   1      50.355  52.309  15.457  0.00  0.00    -0.239 NA
ATOM      3  H   MET A   1      49.985  51.346  15.327  0.00  0.00    +0.142 HD
ENDBRANCH   1   2
BRANCH   1   4
ATOM      4  C   MET A   1      48.961  54.280  15.975  0.00  0.00    +0.224 C 
ATOM      5  O   MET A   1      48.352  55.322  15.697  0.00  0.00    -0.287 OA
ENDBRANCH   1   4
BRANCH   1   6
ATOM      6  CB  MET A   1      48.615  52.959  13.842  0.00  0.00    +0.037 C 
BRANCH   6   7
ATOM      7  CG  MET A   1      49.241  52.653  12.473  0.00  0.00    +0.059 C 
BRANCH   7   8
ATOM      8  SD  MET A   1      50.200  54.053  11.768  0.00  0.00    -0.139 S 
ATOM      9  CE  MET A   1      48.840  55.097  11.112  0.00  0.00    +0.069 C 
ENDBRANCH   7   8
ENDBRANCH   6   7
ENDBRANCH   1   6
TORSDOF 5
REMARK  Name = ../refined-set-2016/1fzm/1fzm_pocket.pdb
REMARK  330 active torsions:
REMARK  status: ('A' for Active; 'I' for Inactive)
REMARK    1  A    between atoms: _1  and  _3
REMARK    2  A    between atoms: _3  and  _4
REMARK    3  A    between atoms: _3  and  _6
REMARK    4  A    between atoms: _6  and  _7
REMARK    5  A    between atoms: _10  and  _12
REMARK    6  A    between atoms: _12  and  _13
REMARK    7  A    between atoms: _12  and  _15
REMARK    8  A    between atoms: _15  and  _16
REMARK    9  A    between atoms: _16  and  _17
REMARK   10  A    between atoms: _17  and  _18
REMARK   11  A    between atoms: _27  and  _29
REMARK   12  A    between atoms: _29  and  _30
REMARK   13  A    between atoms: _29  and  _32
REMARK   14  A    between atoms: _32  and  _33
REMARK   15  A    between atoms: _38  and  _39
REMARK   16  A    between atoms: _41  and  _43
REMARK   17  A    between atoms: _43  and  _44
REMARK   18  A    between atoms: _43  and  _46
REMARK   19  A    between atoms: _46  and  _47
REMARK   20  A    between atoms: _53  and  _55
REMARK   21  A    between atoms: _55  and  _56
REMARK   22  A    between atoms: _55  and  _58
REMARK   23  A    between atoms: _61  and  _63
REMARK   24  A    between atoms: _63  and  _64
REMARK   25  A    between atoms: _63  and  _66
REMARK   26  A    between atoms: _66  and  _67
REMARK   27  A    between atoms: _70  and  _72
REMARK   28  A    between atoms: _72  and  _73
REMARK   29  A    between atoms: _72  and  _75
REMARK   30  A    between atoms: _75  and  _76
REMARK   31  A    between atoms: _82  and  _84
REMARK   32  A    between atoms: _84  and  _85
REMARK   33  A    between atoms: _84  and  _87
REMARK   34  A    between atoms: _87  and  _88
REMARK   35  A    between atoms: _90  and  _92
REMARK   36  A    between atoms: _92  and  _93
REMARK   37  A    between atoms: _92  and  _95
REMARK   38  A    between atoms: _98  and  _100
REMARK   39  A    between atoms: _100  and  _101
REMARK   40  A    between atoms: _100  and  _103
REMARK   41  A    between atoms: _103  and  _104
REMARK   42  A    between atoms: _110  and  _112
REMARK   43  A    between atoms: _112  and  _113
REMARK   44  A    between atoms: _112  and  _115
REMARK   45  A    between atoms: _118  and  _120
REMARK   46  A    between atoms: _120  and  _121
REMARK   47  A    between atoms: _120  and  _123
REMARK   48  A    between atoms: _123  and  _124
REMARK   49  A    between atoms: _129  and  _130
REMARK   50  A    between atoms: _132  and  _134
REMARK   51  A    between atoms: _134  and  _135
REMARK   52  A    between atoms: _134  and  _137
REMARK   53  A    between atoms: _137  and  _138
REMARK   54  A    between atoms: _138  and  _139
REMARK   55  A    between atoms: _141  and  _143
REMARK   56  A    between atoms: _143  and  _144
REMARK   57  A    between atoms: _143  and  _146
REMARK   58  A    between atoms: _146  and  _147
REMARK   59  A    between atoms: _147  and  _148
REMARK   60  A    between atoms: _151  and  _153
REMARK   61  A    between atoms: _153  and  _154
REMARK   62  A    between atoms: _156  and  _158
REMARK   63  A    between atoms: _158  and  _159
REMARK   64  A    between atoms: _158  and  _161
REMARK   65  A    between atoms: _161  and  _162
REMARK   66  A    between atoms: _162  and  _163
REMARK   67  A    between atoms: _166  and  _168
REMARK   68  A    between atoms: _168  and  _169
REMARK   69  A    between atoms: _168  and  _171
REMARK   70  A    between atoms: _171  and  _172
REMARK   71  A    between atoms: _177  and  _178
REMARK   72  A    between atoms: _180  and  _182
REMARK   73  A    between atoms: _182  and  _183
REMARK   74  A    between atoms: _182  and  _185
REMARK   75  A    between atoms: _185  and  _186
REMARK   76  A    between atoms: _196  and  _198
REMARK   77  A    between atoms: _198  and  _199
REMARK   78  A    between atoms: _198  and  _201
REMARK   79  A    between atoms: _201  and  _202
REMARK   80  A    between atoms: _202  and  _203
REMARK   81  A    between atoms: _203  and  _204
REMARK   82  A    between atoms: _213  and  _215
REMARK   83  A    between atoms: _215  and  _216
REMARK   84  A    between atoms: _215  and  _218
REMARK   85  A    between atoms: _218  and  _219
REMARK   86  A    between atoms: _219  and  _220
REMARK   87  A    between atoms: _223  and  _225
REMARK   88  A    between atoms: _225  and  _226
REMARK   89  A    between atoms: _225  and  _228
REMARK   90  A    between atoms: _228  and  _229
REMARK   91  A    between atoms: _229  and  _230
REMARK   92  A    between atoms: _235  and  _237
REMARK   93  A    between atoms: _237  and  _238
REMARK   94  A    between atoms: _237  and  _240
REMARK   95  A    between atoms: _240  and  _241
REMARK   96  A    between atoms: _241  and  _242
REMARK   97  A    between atoms: _242  and  _243
REMARK   98  A    between atoms: _243  and  _244
REMARK   99  A    between atoms: _248  and  _250
REMARK  100  A    between atoms: _250  and  _251
REMARK  101  A    between atoms: _254  and  _256
REMARK  102  A    between atoms: _256  and  _257
REMARK  103  A    between atoms: _259  and  _261
REMARK  104  A    between atoms: _261  and  _262
REMARK  105  A    between atoms: _261  and  _264
REMARK  106  A    between atoms: _264  and  _265
REMARK  107  A    between atoms: _270  and  _272
REMARK  108  A    between atoms: _272  and  _273
REMARK  109  A    between atoms: _272  and  _275
REMARK  110  A    between atoms: _275  and  _276
REMARK  111  A    between atoms: _276  and  _277
REMARK  112  A    between atoms: _280  and  _282
REMARK  113  A    between atoms: _282  and  _283
REMARK  114  A    between atoms: _282  and  _285
REMARK  115  A    between atoms: _285  and  _286
REMARK  116  A    between atoms: _288  and  _290
REMARK  117  A    between atoms: _290  and  _291
REMARK  118  A    between atoms: _290  and  _293
REMARK  119  A    between atoms: _293  and  _294
REMARK  120  A    between atoms: _300  and  _302
REMARK  121  A    between atoms: _302  and  _303
REMARK  122  A    between atoms: _302  and  _305
REMARK  123  A    between atoms: _308  and  _310
REMARK  124  A    between atoms: _310  and  _311
REMARK  125  A    between atoms: _310  and  _313
REMARK  126  A    between atoms: _313  and  _314
REMARK  127  A    between atoms: _317  and  _319
REMARK  128  A    between atoms: _319  and  _320
REMARK  129  A    between atoms: _319  and  _322
REMARK  130  A    between atoms: _322  and  _323
REMARK  131  A    between atoms: _326  and  _328
REMARK  132  A    between atoms: _328  and  _329
REMARK  133  A    between atoms: _328  and  _331
REMARK  134  A    between atoms: _331  and  _332
REMARK  135  A    between atoms: _335  and  _337
REMARK  136  A    between atoms: _337  and  _338
REMARK  137  A    between atoms: _337  and  _340
REMARK  138  A    between atoms: _340  and  _341
REMARK  139  A    between atoms: _344  and  _346
REMARK  140  A    between atoms: _346  and  _347
REMARK  141  A    between atoms: _346  and  _349
REMARK  142  A    between atoms: _349  and  _350
REMARK  143  A    between atoms: _355  and  _356
REMARK  144  A    between atoms: _358  and  _360
REMARK  145  A    between atoms: _360  and  _361
REMARK  146  A    between atoms: _360  and  _363
REMARK  147  A    between atoms: _363  and  _364
REMARK  148  A    between atoms: _369  and  _370
REMARK  149  A    between atoms: _372  and  _374
REMARK  150  A    between atoms: _374  and  _375
REMARK  151  A    between atoms: _374  and  _377
REMARK  152  A    between atoms: _377  and  _378
REMARK  153  A    between atoms: _381  and  _383
REMARK  154  A    between atoms: _383  and  _384
REMARK  155  A    between atoms: _383  and  _386
REMARK  156  A    between atoms: _386  and  _387
REMARK  157  A    between atoms: _387  and  _388
REMARK  158  A    between atoms: _393  and  _395
REMARK  159  A    between atoms: _395  and  _396
REMARK  160  A    between atoms: _395  and  _398
REMARK  161  A    between atoms: _401  and  _403
REMARK  162  A    between atoms: _403  and  _404
REMARK  163  A    between atoms: _403  and  _406
REMARK  164  A    between atoms: _406  and  _407
REMARK  165  A    between atoms: _410  and  _412
REMARK  166  A    between atoms: _412  and  _413
REMARK  167  A    between atoms: _412  and  _415
REMARK  168  A    between atoms: _415  and  _416
REMARK  169  A    between atoms: _418  and  _420
REMARK  170  A    between atoms: _420  and  _421
REMARK  171  A    between atoms: _423  and  _425
REMARK  172  A    between atoms: _425  and  _426
REMARK  173  A    between atoms: _425  and  _428
REMARK  174  A    between atoms: _428  and  _429
REMARK  175  A    between atoms: _434  and  _435
REMARK  176  A    between atoms: _437  and  _439
REMARK  177  A    between atoms: _439  and  _440
REMARK  178  A    between atoms: _439  and  _442
REMARK  179  A    between atoms: _442  and  _443
REMARK  180  A    between atoms: _443  and  _444
REMARK  181  A    between atoms: _449  and  _451
REMARK  182  A    between atoms: _451  and  _452
REMARK  183  A    between atoms: _451  and  _454
REMARK  184  A    between atoms: _454  and  _455
REMARK  185  A    between atoms: _455  and  _456
REMARK  186  A    between atoms: _461  and  _463
REMARK  187  A    between atoms: _463  and  _464
REMARK  188  A    between atoms: _463  and  _466
REMARK  189  A    between atoms: _466  and  _467
REMARK  190  A    between atoms: _472  and  _473
REMARK  191  A    between atoms: _475  and  _477
REMARK  192  A    between atoms: _477  and  _478
REMARK  193  A    between atoms: _481  and  _483
REMARK  194  A    between atoms: _483  and  _484
REMARK  195  A    between atoms: _483  and  _486
REMARK  196  A    between atoms: _486  and  _487
REMARK  197  A    between atoms: _492  and  _493
REMARK  198  A    between atoms: _495  and  _497
REMARK  199  A    between atoms: _497  and  _498
REMARK  200  A    between atoms: _497  and  _500
REMARK  201  A    between atoms: _500  and  _501
REMARK  202  A    between atoms: _506  and  _507
REMARK  203  A    between atoms: _509  and  _511
REMARK  204  A    between atoms: _511  and  _512
REMARK  205  A    between atoms: _511  and  _514
REMARK  206  A    between atoms: _514  and  _515
REMARK  207  A    between atoms: _518  and  _520
REMARK  208  A    between atoms: _520  and  _521
REMARK  209  A    between atoms: _520  and  _523
REMARK  210  A    between atoms: _523  and  _524
REMARK  211  A    between atoms: _534  and  _536
REMARK  212  A    between atoms: _536  and  _537
REMARK  213  A    between atoms: _540  and  _542
REMARK  214  A    between atoms: _542  and  _543
REMARK  215  A    between atoms: _546  and  _548
REMARK  216  A    between atoms: _548  and  _549
REMARK  217  A    between atoms: _548  and  _551
REMARK  218  A    between atoms: _551  and  _552
REMARK  219  A    between atoms: _555  and  _557
REMARK  220  A    between atoms: _557  and  _558
REMARK  221  A    between atoms: _557  and  _560
REMARK  222  A    between atoms: _560  and  _561
REMARK  223  A    between atoms: _564  and  _566
REMARK  224  A    between atoms: _566  and  _567
REMARK  225  A    between atoms: _566  and  _569
REMARK  226  A    between atoms: _569  and  _570
REMARK  227  A    between atoms: _573  and  _575
REMARK  228  A    between atoms: _575  and  _576
REMARK  229  A    between atoms: _575  and  _578
REMARK  230  A    between atoms: _578  and  _579
REMARK  231  A    between atoms: _579  and  _580
REMARK  232  A    between atoms: _580  and  _581
REMARK  233  A    between atoms: _581  and  _582
REMARK  234  A    between atoms: _586  and  _588
REMARK  235  A    between atoms: _588  and  _589
REMARK  236  A    between atoms: _588  and  _591
REMARK  237  A    between atoms: _591  and  _592
REMARK  238  A    between atoms: _597  and  _599
REMARK  239  A    between atoms: _599  and  _600
REMARK  240  A    between atoms: _599  and  _602
REMARK  241  A    between atoms: _602  and  _603
REMARK  242  A    between atoms: _603  and  _604
REMARK  243  A    between atoms: _604  and  _605
REMARK  244  A    between atoms: _605  and  _606
REMARK  245  A    between atoms: _610  and  _612
REMARK  246  A    between atoms: _612  and  _613
REMARK  247  A    between atoms: _612  and  _615
REMARK  248  A    between atoms: _615  and  _616
REMARK  249  A    between atoms: _626  and  _628
REMARK  250  A    between atoms: _628  and  _629
REMARK  251  A    between atoms: _628  and  _631
REMARK  252  A    between atoms: _631  and  _632
REMARK  253  A    between atoms: _632  and  _633
REMARK  254  A    between atoms: _636  and  _638
REMARK  255  A    between atoms: _638  and  _639
REMARK  256  A    between atoms: _642  and  _644
REMARK  257  A    between atoms: _644  and  _645
REMARK  258  A    between atoms: _647  and  _649
REMARK  259  A    between atoms: _649  and  _650
REMARK  260  A    between atoms: _649  and  _652
REMARK  261  A    between atoms: _652  and  _653
REMARK  262  A    between atoms: _653  and  _654
REMARK  263  A    between atoms: _657  and  _659
REMARK  264  A    between atoms: _659  and  _660
REMARK  265  A    between atoms: _663  and  _665
REMARK  266  A    between atoms: _665  and  _666
REMARK  267  A    between atoms: _665  and  _668
REMARK  268  A    between atoms: _668  and  _669
REMARK  269  A    between atoms: _669  and  _670
REMARK  270  A    between atoms: _673  and  _675
REMARK  271  A    between atoms: _675  and  _676
REMARK  272  A    between atoms: _675  and  _678
REMARK  273  A    between atoms: _678  and  _679
REMARK  274  A    between atoms: _679  and  _680
REMARK  275  A    between atoms: _680  and  _681
REMARK  276  A    between atoms: _690  and  _692
REMARK  277  A    between atoms: _692  and  _693
REMARK  278  A    between atoms: _692  and  _695
REMARK  279  A    between atoms: _695  and  _696
REMARK  280  A    between atoms: _699  and  _701
REMARK  281  A    between atoms: _701  and  _702
REMARK  282  A    between atoms: _701  and  _704
REMARK  283  A    between atoms: _704  and  _705
REMARK  284  A    between atoms: _705  and  _706
REMARK  285  A    between atoms: _706  and  _707
REMARK  286  A    between atoms: _716  and  _718
REMARK  287  A    between atoms: _718  and  _719
REMARK  288  A    between atoms: _722  and  _724
REMARK  289  A    between atoms: _724  and  _725
REMARK  290  A    between atoms: _724  and  _727
REMARK  291  A    between atoms: _727  and  _728
REMARK  292  A    between atoms: _733  and  _734
REMARK  293  A    between atoms: _736  and  _738
REMARK  294  A    between atoms: _738  and  _739
REMARK  295  A    between atoms: _738  and  _741
REMARK  296  A    between atoms: _741  and  _742
REMARK  297  A    between atoms: _745  and  _747
REMARK  298  A    between atoms: _747  and  _748
REMARK  299  A    between atoms: _747  and  _750
REMARK  300  A    between atoms: _750  and  _751
REMARK  301  A    between atoms: _754  and  _756
REMARK  302  A    between atoms: _756  and  _757
REMARK  303  A    between atoms: _756  and  _759
REMARK  304  A    between atoms: _761  and  _763
REMARK  305  A    between atoms: _763  and  _764
REMARK  306  A    between atoms: _763  and  _766
REMARK  307  A    between atoms: _769  and  _771
REMARK  308  A    between atoms: _771  and  _772
REMARK  309  A    between atoms: _771  and  _774
REMARK  310  A    between atoms: _774  and  _775
REMARK  311  A    between atoms: _775  and  _776
REMARK  312  A    between atoms: _779  and  _781
REMARK  313  A    between atoms: _781  and  _782
REMARK  314  A    between atoms: _781  and  _784
REMARK  315  A    between atoms: _784  and  _785
REMARK  316  A    between atoms: _795  and  _797
REMARK  317  A    between atoms: _797  and  _798
REMARK  318  A    between atoms: _797  and  _800
REMARK  319  A    between atoms: _800  and  _801
REMARK  320  A    between atoms: _804  and  _806
REMARK  321  A    between atoms: _806  and  _807
REMARK  322  A    between atoms: _806  and  _809
REMARK  323  A    between atoms: _809  and  _810
REMARK  324  A    between atoms: _810  and  _811
REMARK  325  A    between atoms: _811  and  _812
REMARK  326  A    between atoms: _821  and  _823
REMARK  327  A    between atoms: _823  and  _824
REMARK  328  A    between atoms: _823  and  _826
REMARK  329  A    between atoms: _826  and  _827
REMARK  330  A    between atoms: _832  and  _833
REMARK                            x       y       z     vdW  Elec       q    Type
REMARK                         _______ _______ _______ _____ _____    ______ ____
ROOT
ATOM      1  CA  GLU A   1      49.391  59.254  15.475  0.00  0.00    +0.145 C 
ENDROOT
BRANCH   1   2
ATOM      2  C   GLU A   1      48.304  59.968  16.285  0.00  0.00    +0.238 C 
ATOM      3  O   GLU A   1      47.569  59.335  17.044  0.00  0.00    -0.274 OA
ATOM      4  N   GLY A   2      48.197  61.281  16.121  0.00  0.00    -0.297 N 
ATOM      5  H   GLY A   2      48.836  61.777  15.468  0.00  0.00    +0.150 HD
BRANCH   4   6
ATOM      6  CA  GLY A   2      47.189  62.023  16.853  0.00  0.00    +0.163 C 
BRANCH   6   7
ATOM      7  C   GLY A   2      45.829  61.961  16.182  0.00  0.00    +0.229 C 
ATOM      8  O   GLY A   2      45.689  61.372  15.110  0.00  0.00    -0.286 OA
ENDBRANCH   6   7
ENDBRANCH   4   6
ENDBRANCH   1   2
BRANCH   1   9
ATOM      9  N   GLU A   1      49.885  58.130  16.272  0.00  0.00    -0.238 NA
ATOM     10  H   GLU A   1      49.452  57.190  16.164  0.00  0.00    +0.142 HD
ENDBRANCH   1   9
BRANCH   1  11
ATOM     11  CB  GLU A   1      48.795  58.779  14.147  0.00  0.00    +0.038 C 
BRANCH  11  12
ATOM     12  CG  GLU A   1      49.777  58.154  13.163  0.00  0.00    +0.116 C 
BRANCH  12  13
ATOM     13  CD  GLU A   1      50.923  59.084  12.785  0.00  0.00    +0.365 C 
ATOM     14  OE2 GLU A   1      50.790  60.317  12.957  0.00  0.00    -0.246 OA
ATOM     15  OE1 GLU A   1      51.955  58.577  12.297  0.00  0.00    -0.246 OA
ENDBRANCH  12  13
ENDBRANCH  11  12
ENDBRANCH   1  11
TORSDOF 7
REMARK  Name = ../refined-set-2016/1fzm/1fzm_pocket.pdb
REMARK  330 active torsions:
REMARK  status: ('A' for Active; 'I' for Inactive)
REMARK    1  A    between atoms: _1  and  _3
REMARK    2  A    between atoms: _3  and  _4
REMARK    3  A    between atoms: _3  and  _6
REMARK    4  A    between atoms: _6  and  _7
REMARK    5  A    between atoms: _10  and  _12
REMARK    6  A    between atoms: _12  and  _13
REMARK    7  A    between atoms: _12  and  _15
REMARK    8  A    between atoms: _15  and  _16
REMARK    9  A    between atoms: _16  and  _17
REMARK   10  A    between atoms: _17  and  _18
REMARK   11  A    between atoms: _27  and  _29
REMARK   12  A    between atoms: _29  and  _30
REMARK   13  A    between atoms: _29  and  _32
REMARK   14  A    between atoms: _32  and  _33
REMARK   15  A    between atoms: _38  and  _39
REMARK   16  A    between atoms: _41  and  _43
REMARK   17  A    between atoms: _43  and  _44
REMARK   18  A    between atoms: _43  and  _46
REMARK   19  A    between atoms: _46  and  _47
REMARK   20  A    between atoms: _53  and  _55
REMARK   21  A    between atoms: _55  and  _56
REMARK   22  A    between atoms: _55  and  _58
REMARK   23  A    between atoms: _61  and  _63
REMARK   24  A    between atoms: _63  and  _64
REMARK   25  A    between atoms: _63  and  _66
REMARK   26  A    between atoms: _66  and  _67
REMARK   27  A    between atoms: _70  and  _72
REMARK   28  A    between atoms: _72  and  _73
REMARK   29  A    between atoms: _72  and  _75
REMARK   30  A    between atoms: _75  and  _76
REMARK   31  A    between atoms: _82  and  _84
REMARK   32  A    between atoms: _84  and  _85
REMARK   33  A    between atoms: _84  and  _87
REMARK   34  A    between atoms: _87  and  _88
REMARK   35  A    between atoms: _90  and  _92
REMARK   36  A    between atoms: _92  and  _93
REMARK   37  A    between atoms: _92  and  _95
REMARK   38  A    between atoms: _98  and  _100
REMARK   39  A    between atoms: _100  and  _101
REMARK   40  A    between atoms: _100  and  _103
REMARK   41  A    between atoms: _103  and  _104
REMARK   42  A    between atoms: _110  and  _112
REMARK   43  A    between atoms: _112  and  _113
REMARK   44  A    between atoms: _112  and  _115
REMARK   45  A    between atoms: _118  and  _120
REMARK   46  A    between atoms: _120  and  _121
REMARK   47  A    between atoms: _120  and  _123
REMARK   48  A    between atoms: _123  and  _124
REMARK   49  A    between atoms: _129  and  _130
REMARK   50  A    between atoms: _132  and  _134
REMARK   51  A    between atoms: _134  and  _135
REMARK   52  A    between atoms: _134  and  _137
REMARK   53  A    between atoms: _137  and  _138
REMARK   54  A    between atoms: _138  and  _139
REMARK   55  A    between atoms: _141  and  _143
REMARK   56  A    between atoms: _143  and  _144
REMARK   57  A    between atoms: _143  and  _146
REMARK   58  A    between atoms: _146  and  _147
REMARK   59  A    between atoms: _147  and  _148
REMARK   60  A    between atoms: _151  and  _153
REMARK   61  A    between atoms: _153  and  _154
REMARK   62  A    between atoms: _156  and  _158
REMARK   63  A    between atoms: _158  and  _159
REMARK   64  A    between atoms: _158  and  _161
REMARK   65  A    between atoms: _161  and  _162
REMARK   66  A    between atoms: _162  and  _163
REMARK   67  A    between atoms: _166  and  _168
REMARK   68  A    between atoms: _168  and  _169
REMARK   69  A    between atoms: _168  and  _171
REMARK   70  A    between atoms: _171  and  _172
REMARK   71  A    between atoms: _177  and  _178
REMARK   72  A    between atoms: _180  and  _182
REMARK   73  A    between atoms: _182  and  _183
REMARK   74  A    between atoms: _182  and  _185
REMARK   75  A    between atoms: _185  and  _186
REMARK   76  A    between atoms: _196  and  _198
REMARK   77  A    between atoms: _198  and  _199
REMARK   78  A    between atoms: _198  and  _201
REMARK   79  A    between atoms: _201  and  _202
REMARK   80  A    between atoms: _202  and  _203
REMARK   81  A    between atoms: _203  and  _204
REMARK   82  A    between atoms: _213  and  _215
REMARK   83  A    between atoms: _215  and  _216
REMARK   84  A    between atoms: _215  and  _218
REMARK   85  A    between atoms: _218  and  _219
REMARK   86  A    between atoms: _219  and  _220
REMARK   87  A    between atoms: _223  and  _225
REMARK   88  A    between atoms: _225  and  _226
REMARK   89  A    between atoms: _225  and  _228
REMARK   90  A    between atoms: _228  and  _229
REMARK   91  A    between atoms: _229  and  _230
REMARK   92  A    between atoms: _235  and  _237
REMARK   93  A    between atoms: _237  and  _238
REMARK   94  A    between atoms: _237  and  _240
REMARK   95  A    between atoms: _240  and  _241
REMARK   96  A    between atoms: _241  and  _242
REMARK   97  A    between atoms: _242  and  _243
REMARK   98  A    between atoms: _243  and  _244
REMARK   99  A    between atoms: _248  and  _250
REMARK  100  A    between atoms: _250  and  _251
REMARK  101  A    between atoms: _254  and  _256
REMARK  102  A    between atoms: _256  and  _257
REMARK  103  A    between atoms: _259  and  _261
REMARK  104  A    between atoms: _261  and  _262
REMARK  105  A    between atoms: _261  and  _264
REMARK  106  A    between atoms: _264  and  _265
REMARK  107  A    between atoms: _270  and  _272
REMARK  108  A    between atoms: _272  and  _273
REMARK  109  A    between atoms: _272  and  _275
REMARK  110  A    between atoms: _275  and  _276
REMARK  111  A    between atoms: _276  and  _277
REMARK  112  A    between atoms: _280  and  _282
REMARK  113  A    between atoms: _282  and  _283
REMARK  114  A    between atoms: _282  and  _285
REMARK  115  A    between atoms: _285  and  _286
REMARK  116  A    between atoms: _288  and  _290
REMARK  117  A    between atoms: _290  and  _291
REMARK  118  A    between atoms: _290  and  _293
REMARK  119  A    between atoms: _293  and  _294
REMARK  120  A    between atoms: _300  and  _302
REMARK  121  A    between atoms: _302  and  _303
REMARK  122  A    between atoms: _302  and  _305
REMARK  123  A    between atoms: _308  and  _310
REMARK  124  A    between atoms: _310  and  _311
REMARK  125  A    between atoms: _310  and  _313
REMARK  126  A    between atoms: _313  and  _314
REMARK  127  A    between atoms: _317  and  _319
REMARK  128  A    between atoms: _319  and  _320
REMARK  129  A    between atoms: _319  and  _322
REMARK  130  A    between atoms: _322  and  _323
REMARK  131  A    between atoms: _326  and  _328
REMARK  132  A    between atoms: _328  and  _329
REMARK  133  A    between atoms: _328  and  _331
REMARK  134  A    between atoms: _331  and  _332
REMARK  135  A    between atoms: _335  and  _337
REMARK  136  A    between atoms: _337  and  _338
REMARK  137  A    between atoms: _337  and  _340
REMARK  138  A    between atoms: _340  and  _341
REMARK  139  A    between atoms: _344  and  _346
REMARK  140  A    between atoms: _346  and  _347
REMARK  141  A    between atoms: _346  and  _349
REMARK  142  A    between atoms: _349  and  _350
REMARK  143  A    between atoms: _355  and  _356
REMARK  144  A    between atoms: _358  and  _360
REMARK  145  A    between atoms: _360  and  _361
REMARK  146  A    between atoms: _360  and  _363
REMARK  147  A    between atoms: _363  and  _364
REMARK  148  A    between atoms: _369  and  _370
REMARK  149  A    between atoms: _372  and  _374
REMARK  150  A    between atoms: _374  and  _375
REMARK  151  A    between atoms: _374  and  _377
REMARK  152  A    between atoms: _377  and  _378
REMARK  153  A    between atoms: _381  and  _383
REMARK  154  A    between atoms: _383  and  _384
REMARK  155  A    between atoms: _383  and  _386
REMARK  156  A    between atoms: _386  and  _387
REMARK  157  A    between atoms: _387  and  _388
REMARK  158  A    between atoms: _393  and  _395
REMARK  159  A    between atoms: _395  and  _396
REMARK  160  A    between atoms: _395  and  _398
REMARK  161  A    between atoms: _401  and  _403
REMARK  162  A    between atoms: _403  and  _404
REMARK  163  A    between atoms: _403  and  _406
REMARK  164  A    between atoms: _406  and  _407
REMARK  165  A    between atoms: _410  and  _412
REMARK  166  A    between atoms: _412  and  _413
REMARK  167  A    between atoms: _412  and  _415
REMARK  168  A    between atoms: _415  and  _416
REMARK  169  A    between atoms: _418  and  _420
REMARK  170  A    between atoms: _420  and  _421
REMARK  171  A    between atoms: _423  and  _425
REMARK  172  A    between atoms: _425  and  _426
REMARK  173  A    between atoms: _425  and  _428
REMARK  174  A    between atoms: _428  and  _429
REMARK  175  A    between atoms: _434  and  _435
REMARK  176  A    between atoms: _437  and  _439
REMARK  177  A    between atoms: _439  and  _440
REMARK  178  A    between atoms: _439  and  _442
REMARK  179  A    between atoms: _442  and  _443
REMARK  180  A    between atoms: _443  and  _444
REMARK  181  A    between atoms: _449  and  _451
REMARK  182  A    between atoms: _451  and  _452
REMARK  183  A    between atoms: _451  and  _454
REMARK  184  A    between atoms: _454  and  _455
REMARK  185  A    between atoms: _455  and  _456
REMARK  186  A    between atoms: _461  and  _463
REMARK  187  A    between atoms: _463  and  _464
REMARK  188  A    between atoms: _463  and  _466
REMARK  189  A    between atoms: _466  and  _467
REMARK  190  A    between atoms: _472  and  _473
REMARK  191  A    between atoms: _475  and  _477
REMARK  192  A    between atoms: _477  and  _478
REMARK  193  A    between atoms: _481  and  _483
REMARK  194  A    between atoms: _483  and  _484
REMARK  195  A    between atoms: _483  and  _486
REMARK  196  A    between atoms: _486  and  _487
REMARK  197  A    between atoms: _492  and  _493
REMARK  198  A    between atoms: _495  and  _497
REMARK  199  A    between atoms: _497  and  _498
REMARK  200  A    between atoms: _497  and  _500
REMARK  201  A    between atoms: _500  and  _501
REMARK  202  A    between atoms: _506  and  _507
REMARK  203  A    between atoms: _509  and  _511
REMARK  204  A    between atoms: _511  and  _512
REMARK  205  A    between atoms: _511  and  _514
REMARK  206  A    between atoms: _514  and  _515
REMARK  207  A    between atoms: _518  and  _520
REMARK  208  A    between atoms: _520  and  _521
REMARK  209  A    between atoms: _520  and  _523
REMARK  210  A    between atoms: _523  and  _524
REMARK  211  A    between atoms: _534  and  _536
REMARK  212  A    between atoms: _536  and  _537
REMARK  213  A    between atoms: _540  and  _542
REMARK  214  A    between atoms: _542  and  _543
REMARK  215  A    between atoms: _546  and  _548
REMARK  216  A    between atoms: _548  and  _549
REMARK  217  A    between atoms: _548  and  _551
REMARK  218  A    between atoms: _551  and  _552
REMARK  219  A    between atoms: _555  and  _557
REMARK  220  A    between atoms: _557  and  _558
REMARK  221  A    between atoms: _557  and  _560
REMARK  222  A    between atoms: _560  and  _561
REMARK  223  A    between atoms: _564  and  _566
REMARK  224  A    between atoms: _566  and  _567
REMARK  225  A    between atoms: _566  and  _569
REMARK  226  A    between atoms: _569  and  _570
REMARK  227  A    between atoms: _573  and  _575
REMARK  228  A    between atoms: _575  and  _576
REMARK  229  A    between atoms: _575  and  _578
REMARK  230  A    between atoms: _578  and  _579
REMARK  231  A    between atoms: _579  and  _580
REMARK  232  A    between atoms: _580  and  _581
REMARK  233  A    between atoms: _581  and  _582
REMARK  234  A    between atoms: _586  and  _588
REMARK  235  A    between atoms: _588  and  _589
REMARK  236  A    between atoms: _588  and  _591
REMARK  237  A    between atoms: _591  and  _592
REMARK  238  A    between atoms: _597  and  _599
REMARK  239  A    between atoms: _599  and  _600
REMARK  240  A    between atoms: _599  and  _602
REMARK  241  A    between atoms: _602  and  _603
REMARK  242  A    between atoms: _603  and  _604
REMARK  243  A    between atoms: _604  and  _605
REMARK  244  A    between atoms: _605  and  _606
REMARK  245  A    between atoms: _610  and  _612
REMARK  246  A    between atoms: _612  and  _613
REMARK  247  A    between atoms: _612  and  _615
REMARK  248  A    between atoms: _615  and  _616
REMARK  249  A    between atoms: _626  and  _628
REMARK  250  A    between atoms: _628  and  _629
REMARK  251  A    between atoms: _628  and  _631
REMARK  252  A    between atoms: _631  and  _632
REMARK  253  A    between atoms: _632  and  _633
REMARK  254  A    between atoms: _636  and  _638
REMARK  255  A    between atoms: _638  and  _639
REMARK  256  A    between atoms: _642  and  _644
REMARK  257  A    between atoms: _644  and  _645
REMARK  258  A    between atoms: _647  and  _649
REMARK  259  A    between atoms: _649  and  _650
REMARK  260  A    between atoms: _649  and  _652
REMARK  261  A    between atoms: _652  and  _653
REMARK  262  A    between atoms: _653  and  _654
REMARK  263  A    between atoms: _657  and  _659
REMARK  264  A    between atoms: _659  and  _660
REMARK  265  A    between atoms: _663  and  _665
REMARK  266  A    between atoms: _665  and  _666
REMARK  267  A    between atoms: _665  and  _668
REMARK  268  A    between atoms: _668  and  _669
REMARK  269  A    between atoms: _669  and  _670
REMARK  270  A    between atoms: _673  and  _675
REMARK  271  A    between atoms: _675  and  _676
REMARK  272  A    between atoms: _675  and  _678
REMARK  273  A    between atoms: _678  and  _679
REMARK  274  A    between atoms: _679  and  _680
REMARK  275  A    between atoms: _680  and  _681
REMARK  276  A    between atoms: _690  and  _692
REMARK  277  A    between atoms: _692  and  _693
REMARK  278  A    between atoms: _692  and  _695
REMARK  279  A    between atoms: _695  and  _696
REMARK  280  A    between atoms: _699  and  _701
REMARK  281  A    between atoms: _701  and  _702
REMARK  282  A    between atoms: _701  and  _704
REMARK  283  A    between atoms: _704  and  _705
REMARK  284  A    between atoms: _705  and  _706
REMARK  285  A    between atoms: _706  and  _707
REMARK  286  A    between atoms: _716  and  _718
REMARK  287  A    between atoms: _718  and  _719
REMARK  288  A    between atoms: _722  and  _724
REMARK  289  A    between atoms: _724  and  _725
REMARK  290  A    between atoms: _724  and  _727
REMARK  291  A    between atoms: _727  and  _728
REMARK  292  A    between atoms: _733  and  _734
REMARK  293  A    between atoms: _736  and  _738
REMARK  294  A    between atoms: _738  and  _739
REMARK  295  A    between atoms: _738  and  _741
REMARK  296  A    between atoms: _741  and  _742
REMARK  297  A    between atoms: _745  and  _747
REMARK  298  A    between atoms: _747  and  _748
REMARK  299  A    between atoms: _747  and  _750
REMARK  300  A    between atoms: _750  and  _751
REMARK  301  A    between atoms: _754  and  _756
REMARK  302  A    between atoms: _756  and  _757
REMARK  303  A    between atoms: _756  and  _759
REMARK  304  A    between atoms: _761  and  _763
REMARK  305  A    between atoms: _763  and  _764
REMARK  306  A    between atoms: _763  and  _766
REMARK  307  A    between atoms: _769  and  _771
REMARK  308  A    between atoms: _771  and  _772
REMARK  309  A    between atoms: _771  and  _774
REMARK  310  A    between atoms: _774  and  _775
REMARK  311  A    between atoms: _775  and  _776
REMARK  312  A    between atoms: _779  and  _781
REMARK  313  A    between atoms: _781  and  _782
REMARK  314  A    between atoms: _781  and  _784
REMARK  315  A    between atoms: _784  and  _785
REMARK  316  A    between atoms: _795  and  _797
REMARK  317  A    between atoms: _797  and  _798
REMARK  318  A    between atoms: _797  and  _800
REMARK  319  A    between atoms: _800  and  _801
REMARK  320  A    between atoms: _804  and  _806
REMARK  321  A    between atoms: _806  and  _807
REMARK  322  A    between atoms: _806  and  _809
REMARK  323  A    between atoms: _809  and  _810
REMARK  324  A    between atoms: _810  and  _811
REMARK  325  A    between atoms: _811  and  _812
REMARK  326  A    between atoms: _821  and  _823
REMARK  327  A    between atoms: _823  and  _824
REMARK  328  A    between atoms: _823  and  _826
REMARK  329  A    between atoms: _826  and  _827
REMARK  330  A    between atoms: _832  and  _833
REMARK                            x       y       z     vdW  Elec       q    Type
REMARK                         _______ _______ _______ _____ _____    ______ ____
ROOT
ATOM      1  CA  TYR A   2      45.714  62.029  11.337  0.00  0.00    +0.153 C 
ENDROOT
BRANCH   1   3
ATOM      2  C   GLU A   1      44.503  63.982  12.126  0.00  0.00    +0.238 C 
ATOM      3  N   TYR A   2      45.348  62.985  12.377  0.00  0.00    -0.297 N 
ATOM      4  H   TYR A   2      45.754  62.886  13.329  0.00  0.00    +0.150 HD
ATOM      5  O   GLU A   1      44.005  64.161  11.019  0.00  0.00    -0.274 OA
BRANCH   2   6
ATOM      6  CA  GLU A   1      44.177  64.916  13.288  0.00  0.00    +0.145 C 
BRANCH   6   7
ATOM      7  N   GLU A   1      44.207  64.206  14.558  0.00  0.00    -0.238 NA
ATOM      8  H   GLU A   1      44.929  64.456  15.264  0.00  0.00    +0.142 HD
ENDBRANCH   6   7
BRANCH   6   9
ATOM      9  CB  GLU A   1      45.170  66.086  13.301  0.00  0.00    +0.038 C 
BRANCH   9  10
ATOM     10  CG  GLU A   1      45.153  66.930  12.031  0.00  0.00    +0.116 C 
BRANCH  10  11
ATOM     11  CD  GLU A   1      46.162  68.076  12.068  0.00  0.00    +0.365 C 
ATOM     12  OE2 GLU A   1      46.188  68.817  13.075  0.00  0.00    -0.246 OA
ATOM     13  OE1 GLU A   1      46.923  68.241  11.089  0.00  0.00    -0.246 OA
ENDBRANCH  10  11
ENDBRANCH   9  10
ENDBRANCH   6   9
ENDBRANCH   2   6
ENDBRANCH   1   3
BRANCH   1  14
ATOM     14  C   TYR A   2      44.478  61.253  10.896  0.00  0.00    +0.241 C 
ATOM     15  N   TRP A   3      43.757  60.719  11.876  0.00  0.00    -0.298 N 
ATOM     16  H   TRP A   3      44.055  60.871  12.861  0.00  0.00    +0.150 HD
ATOM     17  O   TYR A   2      44.177  61.158   9.703  0.00  0.00    -0.273 OA
BRANCH  15  18
ATOM     18  CA  TRP A   3      42.564  59.928  11.615  0.00  0.00    +0.141 C 
BRANCH  18  19
ATOM     19  C   TRP A   3      41.449  60.734  10.954  0.00  0.00    +0.227 C 
ATOM     20  O   TRP A   3      40.747  60.228  10.086  0.00  0.00    -0.286 OA
ENDBRANCH  18  19
BRANCH  18  21
ATOM     21  CB  TRP A   3      42.088  59.282  12.924  0.00  0.00    +0.056 C 
BRANCH  21  22
ATOM     22  CG  TRP A   3      43.165  58.414  13.524  0.00  0.00    -0.002 A 
ATOM     23  CD1 TRP A   3      43.884  58.658  14.656  0.00  0.00    +0.068 A 
ATOM     24  NE1 TRP A   3      44.867  57.699  14.812  0.00  0.00    -0.352 N 
ATOM     25  HE1 TRP A   3      45.553  57.657  15.592  0.00  0.00    +0.166 HD
ATOM     26  CE2 TRP A   3      44.789  56.813  13.769  0.00  0.00    +0.056 A 
ATOM     27  CZ2 TRP A   3      45.567  55.678  13.485  0.00  0.00    +0.017 A 
ATOM     28  CH2 TRP A   3      45.261  54.965  12.353  0.00  0.00    +0.001 A 
ATOM     29  CZ3 TRP A   3      44.209  55.349  11.508  0.00  0.00    +0.000 A 
ATOM     30  CE3 TRP A   3      43.432  56.479  11.792  0.00  0.00    +0.001 A 
ATOM     31  CD2 TRP A   3      43.725  57.227  12.941  0.00  0.00    +0.013 A 
ENDBRANCH  21  22
ENDBRANCH  18  21
ENDBRANCH  15  18
ENDBRANCH   1  14
BRANCH   1  32
ATOM     32  CB  TYR A   2      46.788  61.061  11.864  0.00  0.00    +0.055 C 
BRANCH  32  33
ATOM     33  CG  TYR A   2      47.164  59.944  10.907  0.00  0.00    -0.020 A 
ATOM     34  CD2 TYR A   2      46.358  58.809  10.775  0.00  0.00    -0.001 A 
ATOM     35  CE2 TYR A   2      46.680  57.795   9.872  0.00  0.00    +0.036 A 
ATOM     36  CZ  TYR A   2      47.820  57.907   9.090  0.00  0.00    +0.134 A 
ATOM     37  CE1 TYR A   2      48.643  59.020   9.208  0.00  0.00    +0.036 A 
ATOM     38  CD1 TYR A   2      48.309  60.033  10.115  0.00  0.00    -0.001 A 
BRANCH  36  39
ATOM     39  OH  TYR A   2      48.120  56.927   8.168  0.00  0.00    -0.506 OA
ATOM     40  HH  TYR A   2      49.012  56.548   8.370  0.00  0.00    +0.292 HD
ENDBRANCH  36  39
ENDBRANCH  32  33
ENDBRANCH   1  32
TORSDOF 14
REMARK  Name = ../refined-set-2016/1fzm/1fzm_pocket.pdb
REMARK  330 active torsions:
REMARK  status: ('A' for Active; 'I' for Inactive)
REMARK    1  A    between atoms: _1  and  _3
REMARK    2  A    between atoms: _3  and  _4
REMARK    3  A    between atoms: _3  and  _6
REMARK    4  A    between atoms: _6  and  _7
REMARK    5  A    between atoms: _10  and  _12
REMARK    6  A    between atoms: _12  and  _13
REMARK    7  A    between atoms: _12  and  _15
REMARK    8  A    between atoms: _15  and  _16
REMARK    9  A    between atoms: _16  and  _17
REMARK   10  A    between atoms: _17  and  _18
REMARK   11  A    between atoms: _27  and  _29
REMARK   12  A    between atoms: _29  and  _30
REMARK   13  A    between atoms: _29  and  _32
REMARK   14  A    between atoms: _32  and  _33
REMARK   15  A    between atoms: _38  and  _39
REMARK   16  A    between atoms: _41  and  _43
REMARK   17  A    between atoms: _43  and  _44
REMARK   18  A    between atoms: _43  and  _46
REMARK   19  A    between atoms: _46  and  _47
REMARK   20  A    between atoms: _53  and  _55
REMARK   21  A    between atoms: _55  and  _56
REMARK   22  A    between atoms: _55  and  _58
REMARK   23  A    between atoms: _61  and  _63
REMARK   24  A    between atoms: _63  and  _64
REMARK   25  A    between atoms: _63  and  _66
REMARK   26  A    between atoms: _66  and  _67
REMARK   27  A    between atoms: _70  and  _72
REMARK   28  A    between atoms: _72  and  _73
REMARK   29  A    between atoms: _72  and  _75
REMARK   30  A    between atoms: _75  and  _76
REMARK   31  A    between atoms: _82  and  _84
REMARK   32  A    between atoms: _84  and  _85
REMARK   33  A    between atoms: _84  and  _87
REMARK   34  A    between atoms: _87  and  _88
REMARK   35  A    between atoms: _90  and  _92
REMARK   36  A    between atoms: _92  and  _93
REMARK   37  A    between atoms: _92  and  _95
REMARK   38  A    between atoms: _98  and  _100
REMARK   39  A    between atoms: _100  and  _101
REMARK   40  A    between atoms: _100  and  _103
REMARK   41  A    between atoms: _103  and  _104
REMARK   42  A    between atoms: _110  and  _112
REMARK   43  A    between atoms: _112  and  _113
REMARK   44  A    between atoms: _112  and  _115
REMARK   45  A    between atoms: _118  and  _120
REMARK   46  A    between atoms: _120  and  _121
REMARK   47  A    between atoms: _120  and  _123
REMARK   48  A    between atoms: _123  and  _124
REMARK   49  A    between atoms: _129  and  _130
REMARK   50  A    between atoms: _132  and  _134
REMARK   51  A    between atoms: _134  and  _135
REMARK   52  A    between atoms: _134  and  _137
REMARK   53  A    between atoms: _137  and  _138
REMARK   54  A    between atoms: _138  and  _139
REMARK   55  A    between atoms: _141  and  _143
REMARK   56  A    between atoms: _143  and  _144
REMARK   57  A    between atoms: _143  and  _146
REMARK   58  A    between atoms: _146  and  _147
REMARK   59  A    between atoms: _147  and  _148
REMARK   60  A    between atoms: _151  and  _153
REMARK   61  A    between atoms: _153  and  _154
REMARK   62  A    between atoms: _156  and  _158
REMARK   63  A    between atoms: _158  and  _159
REMARK   64  A    between atoms: _158  and  _161
REMARK   65  A    between atoms: _161  and  _162
REMARK   66  A    between atoms: _162  and  _163
REMARK   67  A    between atoms: _166  and  _168
REMARK   68  A    between atoms: _168  and  _169
REMARK   69  A    between atoms: _168  and  _171
REMARK   70  A    between atoms: _171  and  _172
REMARK   71  A    between atoms: _177  and  _178
REMARK   72  A    between atoms: _180  and  _182
REMARK   73  A    between atoms: _182  and  _183
REMARK   74  A    between atoms: _182  and  _185
REMARK   75  A    between atoms: _185  and  _186
REMARK   76  A    between atoms: _196  and  _198
REMARK   77  A    between atoms: _198  and  _199
REMARK   78  A    between atoms: _198  and  _201
REMARK   79  A    between atoms: _201  and  _202
REMARK   80  A    between atoms: _202  and  _203
REMARK   81  A    between atoms: _203  and  _204
REMARK   82  A    between atoms: _213  and  _215
REMARK   83  A    between atoms: _215  and  _216
REMARK   84  A    between atoms: _215  and  _218
REMARK   85  A    between atoms: _218  and  _219
REMARK   86  A    between atoms: _219  and  _220
REMARK   87  A    between atoms: _223  and  _225
REMARK   88  A    between atoms: _225  and  _226
REMARK   89  A    between atoms: _225  and  _228
REMARK   90  A    between atoms: _228  and  _229
REMARK   91  A    between atoms: _229  and  _230
REMARK   92  A    between atoms: _235  and  _237
REMARK   93  A    between atoms: _237  and  _238
REMARK   94  A    between atoms: _237  and  _240
REMARK   95  A    between atoms: _240  and  _241
REMARK   96  A    between atoms: _241  and  _242
REMARK   97  A    between atoms: _242  and  _243
REMARK   98  A    between atoms: _243  and  _244
REMARK   99  A    between atoms: _248  and  _250
REMARK  100  A    between atoms: _250  and  _251
REMARK  101  A    between atoms: _254  and  _256
REMARK  102  A    between atoms: _256  and  _257
REMARK  103  A    between atoms: _259  and  _261
REMARK  104  A    between atoms: _261  and  _262
REMARK  105  A    between atoms: _261  and  _264
REMARK  106  A    between atoms: _264  and  _265
REMARK  107  A    between atoms: _270  and  _272
REMARK  108  A    between atoms: _272  and  _273
REMARK  109  A    between atoms: _272  and  _275
REMARK  110  A    between atoms: _275  and  _276
REMARK  111  A    between atoms: _276  and  _277
REMARK  112  A    between atoms: _280  and  _282
REMARK  113  A    between atoms: _282  and  _283
REMARK  114  A    between atoms: _282  and  _285
REMARK  115  A    between atoms: _285  and  _286
REMARK  116  A    between atoms: _288  and  _290
REMARK  117  A    between atoms: _290  and  _291
REMARK  118  A    between atoms: _290  and  _293
REMARK  119  A    between atoms: _293  and  _294
REMARK  120  A    between atoms: _300  and  _302
REMARK  121  A    between atoms: _302  and  _303
REMARK  122  A    between atoms: _302  and  _305
REMARK  123  A    between atoms: _308  and  _310
REMARK  124  A    between atoms: _310  and  _311
REMARK  125  A    between atoms: _310  and  _313
REMARK  126  A    between atoms: _313  and  _314
REMARK  127  A    between atoms: _317  and  _319
REMARK  128  A    between atoms: _319  and  _320
REMARK  129  A    between atoms: _319  and  _322
REMARK  130  A    between atoms: _322  and  _323
REMARK  131  A    between atoms: _326  and  _328
REMARK  132  A    between atoms: _328  and  _329
REMARK  133  A    between atoms: _328  and  _331
REMARK  134  A    between atoms: _331  and  _332
REMARK  135  A    between atoms: _335  and  _337
REMARK  136  A    between atoms: _337  and  _338
REMARK  137  A    between atoms: _337  and  _340
REMARK  138  A    between atoms: _340  and  _341
REMARK  139  A    between atoms: _344  and  _346
REMARK  140  A    between atoms: _346  and  _347
REMARK  141  A    between atoms: _346  and  _349
REMARK  142  A    between atoms: _349  and  _350
REMARK  143  A    between atoms: _355  and  _356
REMARK  144  A    between atoms: _358  and  _360
REMARK  145  A    between atoms: _360  and  _361
REMARK  146  A    between atoms: _360  and  _363
REMARK  147  A    between atoms: _363  and  _364
REMARK  148  A    between atoms: _369  and  _370
REMARK  149  A    between atoms: _372  and  _374
REMARK  150  A    between atoms: _374  and  _375
REMARK  151  A    between atoms: _374  and  _377
REMARK  152  A    between atoms: _377  and  _378
REMARK  153  A    between atoms: _381  and  _383
REMARK  154  A    between atoms: _383  and  _384
REMARK  155  A    between atoms: _383  and  _386
REMARK  156  A    between atoms: _386  and  _387
REMARK  157  A    between atoms: _387  and  _388
REMARK  158  A    between atoms: _393  and  _395
REMARK  159  A    between atoms: _395  and  _396
REMARK  160  A    between atoms: _395  and  _398
REMARK  161  A    between atoms: _401  and  _403
REMARK  162  A    between atoms: _403  and  _404
REMARK  163  A    between atoms: _403  and  _406
REMARK  164  A    between atoms: _406  and  _407
REMARK  165  A    between atoms: _410  and  _412
REMARK  166  A    between atoms: _412  and  _413
REMARK  167  A    between atoms: _412  and  _415
REMARK  168  A    between atoms: _415  and  _416
REMARK  169  A    between atoms: _418  and  _420
REMARK  170  A    between atoms: _420  and  _421
REMARK  171  A    between atoms: _423  and  _425
REMARK  172  A    between atoms: _425  and  _426
REMARK  173  A    between atoms: _425  and  _428
REMARK  174  A    between atoms: _428  and  _429
REMARK  175  A    between atoms: _434  and  _435
REMARK  176  A    between atoms: _437  and  _439
REMARK  177  A    between atoms: _439  and  _440
REMARK  178  A    between atoms: _439  and  _442
REMARK  179  A    between atoms: _442  and  _443
REMARK  180  A    between atoms: _443  and  _444
REMARK  181  A    between atoms: _449  and  _451
REMARK  182  A    between atoms: _451  and  _452
REMARK  183  A    between atoms: _451  and  _454
REMARK  184  A    between atoms: _454  and  _455
REMARK  185  A    between atoms: _455  and  _456
REMARK  186  A    between atoms: _461  and  _463
REMARK  187  A    between atoms: _463  and  _464
REMARK  188  A    between atoms: _463  and  _466
REMARK  189  A    between atoms: _466  and  _467
REMARK  190  A    between atoms: _472  and  _473
REMARK  191  A    between atoms: _475  and  _477
REMARK  192  A    between atoms: _477  and  _478
REMARK  193  A    between atoms: _481  and  _483
REMARK  194  A    between atoms: _483  and  _484
REMARK  195  A    between atoms: _483  and  _486
REMARK  196  A    between atoms: _486  and  _487
REMARK  197  A    between atoms: _492  and  _493
REMARK  198  A    between atoms: _495  and  _497
REMARK  199  A    between atoms: _497  and  _498
REMARK  200  A    between atoms: _497  and  _500
REMARK  201  A    between atoms: _500  and  _501
REMARK  202  A    between atoms: _506  and  _507
REMARK  203  A    between atoms: _509  and  _511
REMARK  204  A    between atoms: _511  and  _512
REMARK  205  A    between atoms: _511  and  _514
REMARK  206  A    between atoms: _514  and  _515
REMARK  207  A    between atoms: _518  and  _520
REMARK  208  A    between atoms: _520  and  _521
REMARK  209  A    between atoms: _520  and  _523
REMARK  210  A    between atoms: _523  and  _524
REMARK  211  A    between atoms: _534  and  _536
REMARK  212  A    between atoms: _536  and  _537
REMARK  213  A    between atoms: _540  and  _542
REMARK  214  A    between atoms: _542  and  _543
REMARK  215  A    between atoms: _546  and  _548
REMARK  216  A    between atoms: _548  and  _549
REMARK  217  A    between atoms: _548  and  _551
REMARK  218  A    between atoms: _551  and  _552
REMARK  219  A    between atoms: _555  and  _557
REMARK  220  A    between atoms: _557  and  _558
REMARK  221  A    between atoms: _557  and  _560
REMARK  222  A    between atoms: _560  and  _561
REMARK  223  A    between atoms: _564  and  _566
REMARK  224  A    between atoms: _566  and  _567
REMARK  225  A    between atoms: _566  and  _569
REMARK  226  A    between atoms: _569  and  _570
REMARK  227  A    between atoms: _573  and  _575
REMARK  228  A    between atoms: _575  and  _576
REMARK  229  A    between atoms: _575  and  _578
REMARK  230  A    between atoms: _578  and  _579
REMARK  231  A    between atoms: _579  and  _580
REMARK  232  A    between atoms: _580  and  _581
REMARK  233  A    between atoms: _581  and  _582
REMARK  234  A    between atoms: _586  and  _588
REMARK  235  A    between atoms: _588  and  _589
REMARK  236  A    between atoms: _588  and  _591
REMARK  237  A    between atoms: _591  and  _592
REMARK  238  A    between atoms: _597  and  _599
REMARK  239  A    between atoms: _599  and  _600
REMARK  240  A    between atoms: _599  and  _602
REMARK  241  A    between atoms: _602  and  _603
REMARK  242  A    between atoms: _603  and  _604
REMARK  243  A    between atoms: _604  and  _605
REMARK  244  A    between atoms: _605  and  _606
REMARK  245  A    between atoms: _610  and  _612
REMARK  246  A    between atoms: _612  and  _613
REMARK  247  A    between atoms: _612  and  _615
REMARK  248  A    between atoms: _615  and  _616
REMARK  249  A    between atoms: _626  and  _628
REMARK  250  A    between atoms: _628  and  _629
REMARK  251  A    between atoms: _628  and  _631
REMARK  252  A    between atoms: _631  and  _632
REMARK  253  A    between atoms: _632  and  _633
REMARK  254  A    between atoms: _636  and  _638
REMARK  255  A    between atoms: _638  and  _639
REMARK  256  A    between atoms: _642  and  _644
REMARK  257  A    between atoms: _644  and  _645
REMARK  258  A    between atoms: _647  and  _649
REMARK  259  A    between atoms: _649  and  _650
REMARK  260  A    between atoms: _649  and  _652
REMARK  261  A    between atoms: _652  and  _653
REMARK  262  A    between atoms: _653  and  _654
REMARK  263  A    between atoms: _657  and  _659
REMARK  264  A    between atoms: _659  and  _660
REMARK  265  A    between atoms: _663  and  _665
REMARK  266  A    between atoms: _665  and  _666
REMARK  267  A    between atoms: _665  and  _668
REMARK  268  A    between atoms: _668  and  _669
REMARK  269  A    between atoms: _669  and  _670
REMARK  270  A    between atoms: _673  and  _675
REMARK  271  A    between atoms: _675  and  _676
REMARK  272  A    between atoms: _675  and  _678
REMARK  273  A    between atoms: _678  and  _679
REMARK  274  A    between atoms: _679  and  _680
REMARK  275  A    between atoms: _680  and  _681
REMARK  276  A    between atoms: _690  and  _692
REMARK  277  A    between atoms: _692  and  _693
REMARK  278  A    between atoms: _692  and  _695
REMARK  279  A    between atoms: _695  and  _696
REMARK  280  A    between atoms: _699  and  _701
REMARK  281  A    between atoms: _701  and  _702
REMARK  282  A    between atoms: _701  and  _704
REMARK  283  A    between atoms: _704  and  _705
REMARK  284  A    between atoms: _705  and  _706
REMARK  285  A    between atoms: _706  and  _707
REMARK  286  A    between atoms: _716  and  _718
REMARK  287  A    between atoms: _718  and  _719
REMARK  288  A    between atoms: _722  and  _724
REMARK  289  A    between atoms: _724  and  _725
REMARK  290  A    between atoms: _724  and  _727
REMARK  291  A    between atoms: _727  and  _728
REMARK  292  A    between atoms: _733  and  _734
REMARK  293  A    between atoms: _736  and  _738
REMARK  294  A    between atoms: _738  and  _739
REMARK  295  A    between atoms: _738  and  _741
REMARK  296  A    between atoms: _741  and  _742
REMARK  297  A    between atoms: _745  and  _747
REMARK  298  A    between atoms: _747  and  _748
REMARK  299  A    between atoms: _747  and  _750
REMARK  300  A    between atoms: _750  and  _751
REMARK  301  A    between atoms: _754  and  _756
REMARK  302  A    between atoms: _756  and  _757
REMARK  303  A    between atoms: _756  and  _759
REMARK  304  A    between atoms: _761  and  _763
REMARK  305  A    between atoms: _763  and  _764
REMARK  306  A    between atoms: _763  and  _766
REMARK  307  A    between atoms: _769  and  _771
REMARK  308  A    between atoms: _771  and  _772
REMARK  309  A    between atoms: _771  and  _774
REMARK  310  A    between atoms: _774  and  _775
REMARK  311  A    between atoms: _775  and  _776
REMARK  312  A    between atoms: _779  and  _781
REMARK  313  A    between atoms: _781  and  _782
REMARK  314  A    between atoms: _781  and  _784
REMARK  315  A    between atoms: _784  and  _785
REMARK  316  A    between atoms: _795  and  _797
REMARK  317  A    between atoms: _797  and  _798
REMARK  318  A    between atoms: _797  and  _800
REMARK  319  A    between atoms: _800  and  _801
REMARK  320  A    between atoms: _804  and  _806
REMARK  321  A    between atoms: _806  and  _807
REMARK  322  A    between atoms: _806  and  _809
REMARK  323  A    between atoms: _809  and  _810
REMARK  324  A    between atoms: _810  and  _811
REMARK  325  A    between atoms: _811  and  _812
REMARK  326  A    between atoms: _821  and  _823
REMARK  327  A    between atoms: _823  and  _824
REMARK  328  A    between atoms: _823  and  _826
REMARK  329  A    between atoms: _826  and  _827
REMARK  330  A    between atoms: _832  and  _833
REMARK                            x       y       z     vdW  Elec       q    Type
REMARK                         _______ _______ _______ _____ _____    ______ ____
ROOT
ATOM      1  CA  ARG A   1      42.255  63.699   7.618  0.00  0.00    +0.145 C 
ENDROOT
BRANCH   1   2
ATOM      2  C   ARG A   1      42.201  62.475   6.703  0.00  0.00    +0.238 C 
ATOM      3  N   GLU A   2      42.654  61.321   7.185  0.00  0.00    -0.298 N 
ATOM      4  H   GLU A   2      43.034  61.271   8.152  0.00  0.00    +0.150 HD
ATOM      5  O   ARG A   1      41.755  62.577   5.564  0.00  0.00    -0.274 OA
BRANCH   3   6
ATOM      6  CA  GLU A   2      42.615  60.123   6.348  0.00  0.00    +0.137 C 
BRANCH   6   7
ATOM      7  C   GLU A   2      41.163  59.723   6.075  0.00  0.00    +0.227 C 
ATOM      8  O   GLU A   2      40.837  59.281   4.981  0.00  0.00    -0.286 OA
ENDBRANCH   6   7
BRANCH   6   9
ATOM      9  CB  GLU A   2      43.363  58.964   7.017  0.00  0.00    +0.039 C 
BRANCH   9  10
ATOM     10  CG  GLU A   2      44.873  59.147   7.018  0.00  0.00    +0.116 C 
BRANCH  10  11
ATOM     11  CD  GLU A   2      45.415  59.362   5.626  0.00  0.00    +0.365 C 
ATOM     12  OE2 GLU A   2      45.818  60.505   5.320  0.00  0.00    -0.246 OA
ATOM     13  OE1 GLU A   2      45.428  58.398   4.828  0.00  0.00    -0.246 OA
ENDBRANCH  10  11
ENDBRANCH   9  10
ENDBRANCH   6   9
ENDBRANCH   3   6
ENDBRANCH   1   2
BRANCH   1  14
ATOM     14  N   ARG A   1      41.869  63.411   8.994  0.00  0.00    -0.238 NA
ATOM     15  H   ARG A   1      42.587  63.423   9.746  0.00  0.00    +0.142 HD
ENDBRANCH   1  14
BRANCH   1  16
ATOM     16  CB  ARG A   1      43.651  64.331   7.570  0.00  0.00    +0.030 C 
BRANCH  16  17
ATOM     17  CG  ARG A   1      43.708  65.709   8.228  0.00  0.00    +0.045 C 
BRANCH  17  18
ATOM     18  CD  ARG A   1      45.108  66.319   8.182  0.00  0.00    +0.174 C 
BRANCH  18  19
ATOM     19  NE  ARG A   1      45.580  66.492   6.811  0.00  0.00    -0.265 N 
ATOM     20  CZ  ARG A   1      46.605  67.265   6.461  0.00  0.00    +0.342 C 
ATOM     21  NH2 ARG A   1      47.272  67.942   7.387  0.00  0.00    -0.292 N 
ATOM     22 HH21 ARG A   1      46.994  67.868   8.386  0.00  0.00    +0.255 HD
ATOM     23 HH22 ARG A   1      48.073  68.546   7.113  0.00  0.00    +0.255 HD
ATOM     24  NH1 ARG A   1      46.959  67.363   5.186  0.00  0.00    -0.292 N 
ATOM     25 HH11 ARG A   1      47.760  67.967   4.914  0.00  0.00    +0.255 HD
ATOM     26 HH12 ARG A   1      46.435  66.835   4.459  0.00  0.00    +0.255 HD
ATOM     27  HE  ARG A   1      45.082  65.977   6.058  0.00  0.00    +0.259 HD
ENDBRANCH  18  19
ENDBRANCH  17  18
ENDBRANCH  16  17
ENDBRANCH   1  16
TORSDOF 11
REMARK  Name = ../refined-set-2016/1fzm/1fzm_pocket.pdb
REMARK  330 active torsions:
REMARK  status: ('A' for Active; 'I' for Inactive)
REMARK    1  A    between atoms: _1  and  _3
REMARK    2  A    between atoms: _3  and  _4
REMARK    3  A    between atoms: _3  and  _6
REMARK    4  A    between atoms: _6  and  _7
REMARK    5  A    between atoms: _10  and  _12
REMARK    6  A    between atoms: _12  and  _13
REMARK    7  A    between atoms: _12  and  _15
REMARK    8  A    between atoms: _15  and  _16
REMARK    9  A    between atoms: _16  and  _17
REMARK   10  A    between atoms: _17  and  _18
REMARK   11  A    between atoms: _27  and  _29
REMARK   12  A    between atoms: _29  and  _30
REMARK   13  A    between atoms: _29  and  _32
REMARK   14  A    between atoms: _32  and  _33
REMARK   15  A    between atoms: _38  and  _39
REMARK   16  A    between atoms: _41  and  _43
REMARK   17  A    between atoms: _43  and  _44
REMARK   18  A    between atoms: _43  and  _46
REMARK   19  A    between atoms: _46  and  _47
REMARK   20  A    between atoms: _53  and  _55
REMARK   21  A    between atoms: _55  and  _56
REMARK   22  A    between atoms: _55  and  _58
REMARK   23  A    between atoms: _61  and  _63
REMARK   24  A    between atoms: _63  and  _64
REMARK   25  A    between atoms: _63  and  _66
REMARK   26  A    between atoms: _66  and  _67
REMARK   27  A    between atoms: _70  and  _72
REMARK   28  A    between atoms: _72  and  _73
REMARK   29  A    between atoms: _72  and  _75
REMARK   30  A    between atoms: _75  and  _76
REMARK   31  A    between atoms: _82  and  _84
REMARK   32  A    between atoms: _84  and  _85
REMARK   33  A    between atoms: _84  and  _87
REMARK   34  A    between atoms: _87  and  _88
REMARK   35  A    between atoms: _90  and  _92
REMARK   36  A    between atoms: _92  and  _93
REMARK   37  A    between atoms: _92  and  _95
REMARK   38  A    between atoms: _98  and  _100
REMARK   39  A    between atoms: _100  and  _101
REMARK   40  A    between atoms: _100  and  _103
REMARK   41  A    between atoms: _103  and  _104
REMARK   42  A    between atoms: _110  and  _112
REMARK   43  A    between atoms: _112  and  _113
REMARK   44  A    between atoms: _112  and  _115
REMARK   45  A    between atoms: _118  and  _120
REMARK   46  A    between atoms: _120  and  _121
REMARK   47  A    between atoms: _120  and  _123
REMARK   48  A    between atoms: _123  and  _124
REMARK   49  A    between atoms: _129  and  _130
REMARK   50  A    between atoms: _132  and  _134
REMARK   51  A    between atoms: _134  and  _135
REMARK   52  A    between atoms: _134  and  _137
REMARK   53  A    between atoms: _137  and  _138
REMARK   54  A    between atoms: _138  and  _139
REMARK   55  A    between atoms: _141  and  _143
REMARK   56  A    between atoms: _143  and  _144
REMARK   57  A    between atoms: _143  and  _146
REMARK   58  A    between atoms: _146  and  _147
REMARK   59  A    between atoms: _147  and  _148
REMARK   60  A    between atoms: _151  and  _153
REMARK   61  A    between atoms: _153  and  _154
REMARK   62  A    between atoms: _156  and  _158
REMARK   63  A    between atoms: _158  and  _159
REMARK   64  A    between atoms: _158  and  _161
REMARK   65  A    between atoms: _161  and  _162
REMARK   66  A    between atoms: _162  and  _163
REMARK   67  A    between atoms: _166  and  _168
REMARK   68  A    between atoms: _168  and  _169
REMARK   69  A    between atoms: _168  and  _171
REMARK   70  A    between atoms: _171  and  _172
REMARK   71  A    between atoms: _177  and  _178
REMARK   72  A    between atoms: _180  and  _182
REMARK   73  A    between atoms: _182  and  _183
REMARK   74  A    between atoms: _182  and  _185
REMARK   75  A    between atoms: _185  and  _186
REMARK   76  A    between atoms: _196  and  _198
REMARK   77  A    between atoms: _198  and  _199
REMARK   78  A    between atoms: _198  and  _201
REMARK   79  A    between atoms: _201  and  _202
REMARK   80  A    between atoms: _202  and  _203
REMARK   81  A    between atoms: _203  and  _204
REMARK   82  A    between atoms: _213  and  _215
REMARK   83  A    between atoms: _215  and  _216
REMARK   84  A    between atoms: _215  and  _218
REMARK   85  A    between atoms: _218  and  _219
REMARK   86  A    between atoms: _219  and  _220
REMARK   87  A    between atoms: _223  and  _225
REMARK   88  A    between atoms: _225  and  _226
REMARK   89  A    between atoms: _225  and  _228
REMARK   90  A    between atoms: _228  and  _229
REMARK   91  A    between atoms: _229  and  _230
REMARK   92  A    between atoms: _235  and  _237
REMARK   93  A    between atoms: _237  and  _238
REMARK   94  A    between atoms: _237  and  _240
REMARK   95  A    between atoms: _240  and  _241
REMARK   96  A    between atoms: _241  and  _242
REMARK   97  A    between atoms: _242  and  _243
REMARK   98  A    between atoms: _243  and  _244
REMARK   99  A    between atoms: _248  and  _250
REMARK  100  A    between atoms: _250  and  _251
REMARK  101  A    between atoms: _254  and  _256
REMARK  102  A    between atoms: _256  and  _257
REMARK  103  A    between atoms: _259  and  _261
REMARK  104  A    between atoms: _261  and  _262
REMARK  105  A    between atoms: _261  and  _264
REMARK  106  A    between atoms: _264  and  _265
REMARK  107  A    between atoms: _270  and  _272
REMARK  108  A    between atoms: _272  and  _273
REMARK  109  A    between atoms: _272  and  _275
REMARK  110  A    between atoms: _275  and  _276
REMARK  111  A    between atoms: _276  and  _277
REMARK  112  A    between atoms: _280  and  _282
REMARK  113  A    between atoms: _282  and  _283
REMARK  114  A    between atoms: _282  and  _285
REMARK  115  A    between atoms: _285  and  _286
REMARK  116  A    between atoms: _288  and  _290
REMARK  117  A    between atoms: _290  and  _291
REMARK  118  A    between atoms: _290  and  _293
REMARK  119  A    between atoms: _293  and  _294
REMARK  120  A    between atoms: _300  and  _302
REMARK  121  A    between atoms: _302  and  _303
REMARK  122  A    between atoms: _302  and  _305
REMARK  123  A    between atoms: _308  and  _310
REMARK  124  A    between atoms: _310  and  _311
REMARK  125  A    between atoms: _310  and  _313
REMARK  126  A    between atoms: _313  and  _314
REMARK  127  A    between atoms: _317  and  _319
REMARK  128  A    between atoms: _319  and  _320
REMARK  129  A    between atoms: _319  and  _322
REMARK  130  A    between atoms: _322  and  _323
REMARK  131  A    between atoms: _326  and  _328
REMARK  132  A    between atoms: _328  and  _329
REMARK  133  A    between atoms: _328  and  _331
REMARK  134  A    between atoms: _331  and  _332
REMARK  135  A    between atoms: _335  and  _337
REMARK  136  A    between atoms: _337  and  _338
REMARK  137  A    between atoms: _337  and  _340
REMARK  138  A    between atoms: _340  and  _341
REMARK  139  A    between atoms: _344  and  _346
REMARK  140  A    between atoms: _346  and  _347
REMARK  141  A    between atoms: _346  and  _349
REMARK  142  A    between atoms: _349  and  _350
REMARK  143  A    between atoms: _355  and  _356
REMARK  144  A    between atoms: _358  and  _360
REMARK  145  A    between atoms: _360  and  _361
REMARK  146  A    between atoms: _360  and  _363
REMARK  147  A    between atoms: _363  and  _364
REMARK  148  A    between atoms: _369  and  _370
REMARK  149  A    between atoms: _372  and  _374
REMARK  150  A    between atoms: _374  and  _375
REMARK  151  A    between atoms: _374  and  _377
REMARK  152  A    between atoms: _377  and  _378
REMARK  153  A    between atoms: _381  and  _383
REMARK  154  A    between atoms: _383  and  _384
REMARK  155  A    between atoms: _383  and  _386
REMARK  156  A    between atoms: _386  and  _387
REMARK  157  A    between atoms: _387  and  _388
REMARK  158  A    between atoms: _393  and  _395
REMARK  159  A    between atoms: _395  and  _396
REMARK  160  A    between atoms: _395  and  _398
REMARK  161  A    between atoms: _401  and  _403
REMARK  162  A    between atoms: _403  and  _404
REMARK  163  A    between atoms: _403  and  _406
REMARK  164  A    between atoms: _406  and  _407
REMARK  165  A    between atoms: _410  and  _412
REMARK  166  A    between atoms: _412  and  _413
REMARK  167  A    between atoms: _412  and  _415
REMARK  168  A    between atoms: _415  and  _416
REMARK  169  A    between atoms: _418  and  _420
REMARK  170  A    between atoms: _420  and  _421
REMARK  171  A    between atoms: _423  and  _425
REMARK  172  A    between atoms: _425  and  _426
REMARK  173  A    between atoms: _425  and  _428
REMARK  174  A    between atoms: _428  and  _429
REMARK  175  A    between atoms: _434  and  _435
REMARK  176  A    between atoms: _437  and  _439
REMARK  177  A    between atoms: _439  and  _440
REMARK  178  A    between atoms: _439  and  _442
REMARK  179  A    between atoms: _442  and  _443
REMARK  180  A    between atoms: _443  and  _444
REMARK  181  A    between atoms: _449  and  _451
REMARK  182  A    between atoms: _451  and  _452
REMARK  183  A    between atoms: _451  and  _454
REMARK  184  A    between atoms: _454  and  _455
REMARK  185  A    between atoms: _455  and  _456
REMARK  186  A    between atoms: _461  and  _463
REMARK  187  A    between atoms: _463  and  _464
REMARK  188  A    between atoms: _463  and  _466
REMARK  189  A    between atoms: _466  and  _467
REMARK  190  A    between atoms: _472  and  _473
REMARK  191  A    between atoms: _475  and  _477
REMARK  192  A    between atoms: _477  and  _478
REMARK  193  A    between atoms: _481  and  _483
REMARK  194  A    between atoms: _483  and  _484
REMARK  195  A    between atoms: _483  and  _486
REMARK  196  A    between atoms: _486  and  _487
REMARK  197  A    between atoms: _492  and  _493
REMARK  198  A    between atoms: _495  and  _497
REMARK  199  A    between atoms: _497  and  _498
REMARK  200  A    between atoms: _497  and  _500
REMARK  201  A    between atoms: _500  and  _501
REMARK  202  A    between atoms: _506  and  _507
REMARK  203  A    between atoms: _509  and  _511
REMARK  204  A    between atoms: _511  and  _512
REMARK  205  A    between atoms: _511  and  _514
REMARK  206  A    between atoms: _514  and  _515
REMARK  207  A    between atoms: _518  and  _520
REMARK  208  A    between atoms: _520  and  _521
REMARK  209  A    between atoms: _520  and  _523
REMARK  210  A    between atoms: _523  and  _524
REMARK  211  A    between atoms: _534  and  _536
REMARK  212  A    between atoms: _536  and  _537
REMARK  213  A    between atoms: _540  and  _542
REMARK  214  A    between atoms: _542  and  _543
REMARK  215  A    between atoms: _546  and  _548
REMARK  216  A    between atoms: _548  and  _549
REMARK  217  A    between atoms: _548  and  _551
REMARK  218  A    between atoms: _551  and  _552
REMARK  219  A    between atoms: _555  and  _557
REMARK  220  A    between atoms: _557  and  _558
REMARK  221  A    between atoms: _557  and  _560
REMARK  222  A    between atoms: _560  and  _561
REMARK  223  A    between atoms: _564  and  _566
REMARK  224  A    between atoms: _566  and  _567
REMARK  225  A    between atoms: _566  and  _569
REMARK  226  A    between atoms: _569  and  _570
REMARK  227  A    between atoms: _573  and  _575
REMARK  228  A    between atoms: _575  and  _576
REMARK  229  A    between atoms: _575  and  _578
REMARK  230  A    between atoms: _578  and  _579
REMARK  231  A    between atoms: _579  and  _580
REMARK  232  A    between atoms: _580  and  _581
REMARK  233  A    between atoms: _581  and  _582
REMARK  234  A    between atoms: _586  and  _588
REMARK  235  A    between atoms: _588  and  _589
REMARK  236  A    between atoms: _588  and  _591
REMARK  237  A    between atoms: _591  and  _592
REMARK  238  A    between atoms: _597  and  _599
REMARK  239  A    between atoms: _599  and  _600
REMARK  240  A    between atoms: _599  and  _602
REMARK  241  A    between atoms: _602  and  _603
REMARK  242  A    between atoms: _603  and  _604
REMARK  243  A    between atoms: _604  and  _605
REMARK  244  A    between atoms: _605  and  _606
REMARK  245  A    between atoms: _610  and  _612
REMARK  246  A    between atoms: _612  and  _613
REMARK  247  A    between atoms: _612  and  _615
REMARK  248  A    between atoms: _615  and  _616
REMARK  249  A    between atoms: _626  and  _628
REMARK  250  A    between atoms: _628  and  _629
REMARK  251  A    between atoms: _628  and  _631
REMARK  252  A    between atoms: _631  and  _632
REMARK  253  A    between atoms: _632  and  _633
REMARK  254  A    between atoms: _636  and  _638
REMARK  255  A    between atoms: _638  and  _639
REMARK  256  A    between atoms: _642  and  _644
REMARK  257  A    between atoms: _644  and  _645
REMARK  258  A    between atoms: _647  and  _649
REMARK  259  A    between atoms: _649  and  _650
REMARK  260  A    between atoms: _649  and  _652
REMARK  261  A    between atoms: _652  and  _653
REMARK  262  A    between atoms: _653  and  _654
REMARK  263  A    between atoms: _657  and  _659
REMARK  264  A    between atoms: _659  and  _660
REMARK  265  A    between atoms: _663  and  _665
REMARK  266  A    between atoms: _665  and  _666
REMARK  267  A    between atoms: _665  and  _668
REMARK  268  A    between atoms: _668  and  _669
REMARK  269  A    between atoms: _669  and  _670
REMARK  270  A    between atoms: _673  and  _675
REMARK  271  A    between atoms: _675  and  _676
REMARK  272  A    between atoms: _675  and  _678
REMARK  273  A    between atoms: _678  and  _679
REMARK  274  A    between atoms: _679  and  _680
REMARK  275  A    between atoms: _680  and  _681
REMARK  276  A    between atoms: _690  and  _692
REMARK  277  A    between atoms: _692  and  _693
REMARK  278  A    between atoms: _692  and  _695
REMARK  279  A    between atoms: _695  and  _696
REMARK  280  A    between atoms: _699  and  _701
REMARK  281  A    between atoms: _701  and  _702
REMARK  282  A    between atoms: _701  and  _704
REMARK  283  A    between atoms: _704  and  _705
REMARK  284  A    between atoms: _705  and  _706
REMARK  285  A    between atoms: _706  and  _707
REMARK  286  A    between atoms: _716  and  _718
REMARK  287  A    between atoms: _718  and  _719
REMARK  288  A    between atoms: _722  and  _724
REMARK  289  A    between atoms: _724  and  _725
REMARK  290  A    between atoms: _724  and  _727
REMARK  291  A    between atoms: _727  and  _728
REMARK  292  A    between atoms: _733  and  _734
REMARK  293  A    between atoms: _736  and  _738
REMARK  294  A    between atoms: _738  and  _739
REMARK  295  A    between atoms: _738  and  _741
REMARK  296  A    between atoms: _741  and  _742
REMARK  297  A    between atoms: _745  and  _747
REMARK  298  A    between atoms: _747  and  _748
REMARK  299  A    between atoms: _747  and  _750
REMARK  300  A    between atoms: _750  and  _751
REMARK  301  A    between atoms: _754  and  _756
REMARK  302  A    between atoms: _756  and  _757
REMARK  303  A    between atoms: _756  and  _759
REMARK  304  A    between atoms: _761  and  _763
REMARK  305  A    between atoms: _763  and  _764
REMARK  306  A    between atoms: _763  and  _766
REMARK  307  A    between atoms: _769  and  _771
REMARK  308  A    between atoms: _771  and  _772
REMARK  309  A    between atoms: _771  and  _774
REMARK  310  A    between atoms: _774  and  _775
REMARK  311  A    between atoms: _775  and  _776
REMARK  312  A    between atoms: _779  and  _781
REMARK  313  A    between atoms: _781  and  _782
REMARK  314  A    between atoms: _781  and  _784
REMARK  315  A    between atoms: _784  and  _785
REMARK  316  A    between atoms: _795  and  _797
REMARK  317  A    between atoms: _797  and  _798
REMARK  318  A    between atoms: _797  and  _800
REMARK  319  A    between atoms: _800  and  _801
REMARK  320  A    between atoms: _804  and  _806
REMARK  321  A    between atoms: _806  and  _807
REMARK  322  A    between atoms: _806  and  _809
REMARK  323  A    between atoms: _809  and  _810
REMARK  324  A    between atoms: _810  and  _811
REMARK  325  A    between atoms: _811  and  _812
REMARK  326  A    between atoms: _821  and  _823
REMARK  327  A    between atoms: _823  and  _824
REMARK  328  A    between atoms: _823  and  _826
REMARK  329  A    between atoms: _826  and  _827
REMARK  330  A    between atoms: _832  and  _833
REMARK                            x       y       z     vdW  Elec       q    Type
REMARK                         _______ _______ _______ _____ _____    ______ ____
ROOT
ATOM      1  CA  LYS A   2      40.077  61.551   1.998  0.00  0.00    +0.149 C 
ENDROOT
BRANCH   1   3
ATOM      2  C   GLN A   1      38.336  62.292   3.507  0.00  0.00    +0.238 C 
ATOM      3  N   LYS A   2      39.606  61.934   3.321  0.00  0.00    -0.297 N 
ATOM      4  H   LYS A   2      40.265  61.928   4.126  0.00  0.00    +0.150 HD
ATOM      5  O   GLN A   1      37.522  62.316   2.587  0.00  0.00    -0.274 OA
BRANCH   2   6
ATOM      6  CA  GLN A   1      37.916  62.660   4.929  0.00  0.00    +0.145 C 
BRANCH   6   7
ATOM      7  N   GLN A   1      38.498  61.743   5.911  0.00  0.00    -0.238 NA
ATOM      8  H   GLN A   1      39.128  62.112   6.651  0.00  0.00    +0.142 HD
ENDBRANCH   6   7
BRANCH   6   9
ATOM      9  CB  GLN A   1      38.303  64.115   5.247  0.00  0.00    +0.036 C 
BRANCH   9  10
ATOM     10  CG  GLN A   1      37.788  64.600   6.599  0.00  0.00    +0.087 C 
BRANCH  10  11
ATOM     11  CD  GLN A   1      37.976  66.098   6.836  0.00  0.00    +0.219 C 
ATOM     12  OE1 GLN A   1      37.674  66.605   7.921  0.00  0.00    -0.275 OA
ATOM     13  NE2 GLN A   1      38.465  66.809   5.827  0.00  0.00    -0.329 N 
ATOM     14 HE21 GLN A   1      38.607  67.834   5.934  0.00  0.00    +0.145 HD
ATOM     15 HE22 GLN A   1      38.706  66.341   4.930  0.00  0.00    +0.145 HD
ENDBRANCH  10  11
ENDBRANCH   9  10
ENDBRANCH   6   9
ENDBRANCH   2   6
ENDBRANCH   1   3
BRANCH   1  16
ATOM     16  C   LYS A   2      39.432  60.240   1.541  0.00  0.00    +0.241 C 
ATOM     17  N   ALA A   3      39.277  59.301   2.467  0.00  0.00    -0.298 N 
ATOM     18  H   ALA A   3      39.588  59.489   3.442  0.00  0.00    +0.150 HD
ATOM     19  O   LYS A   2      39.093  60.084   0.368  0.00  0.00    -0.273 OA
BRANCH  17  20
ATOM     20  CA  ALA A   3      38.676  58.005   2.140  0.00  0.00    +0.137 C 
ATOM     21  CB  ALA A   3      38.754  57.068   3.346  0.00  0.00    +0.030 C 
BRANCH  20  22
ATOM     22  C   ALA A   3      37.216  58.184   1.702  0.00  0.00    +0.227 C 
ATOM     23  O   ALA A   3      36.775  57.560   0.740  0.00  0.00    -0.286 OA
ENDBRANCH  20  22
ENDBRANCH  17  20
ENDBRANCH   1  16
BRANCH   1  24
ATOM     24  CB  LYS A   2      41.609  61.405   1.985  0.00  0.00    +0.029 C 
BRANCH  24  25
ATOM     25  CG  LYS A   2      42.352  62.720   2.231  0.00  0.00    +0.000 C 
BRANCH  25  26
ATOM     26  CD  LYS A   2      43.857  62.607   1.953  0.00  0.00    -0.024 C 
BRANCH  26  27
ATOM     27  CE  LYS A   2      44.512  61.515   2.775  0.00  0.00    -0.086 C 
BRANCH  27  28
ATOM     28  NZ  LYS A   2      46.009  61.487   2.623  0.00  0.00    +0.380 N 
ATOM     29  HZ1 LYS A   2      46.401  60.721   3.207  0.00  0.00    -0.089 HD
ATOM     30  HZ2 LYS A   2      46.405  62.398   2.932  0.00  0.00    -0.089 HD
ATOM     31  HZ3 LYS A   2      46.252  61.323   1.625  0.00  0.00    -0.089 HD
ENDBRANCH  27  28
ENDBRANCH  26  27
ENDBRANCH  25  26
ENDBRANCH  24  25
ENDBRANCH   1  24
TORSDOF 14
REMARK  Name = ../refined-set-2016/1fzm/1fzm_pocket.pdb
REMARK  330 active torsions:
REMARK  status: ('A' for Active; 'I' for Inactive)
REMARK    1  A    between atoms: _1  and  _3
REMARK    2  A    between atoms: _3  and  _4
REMARK    3  A    between atoms: _3  and  _6
REMARK    4  A    between atoms: _6  and  _7
REMARK    5  A    between atoms: _10  and  _12
REMARK    6  A    between atoms: _12  and  _13
REMARK    7  A    between atoms: _12  and  _15
REMARK    8  A    between atoms: _15  and  _16
REMARK    9  A    between atoms: _16  and  _17
REMARK   10  A    between atoms: _17  and  _18
REMARK   11  A    between atoms: _27  and  _29
REMARK   12  A    between atoms: _29  and  _30
REMARK   13  A    between atoms: _29  and  _32
REMARK   14  A    between atoms: _32  and  _33
REMARK   15  A    between atoms: _38  and  _39
REMARK   16  A    between atoms: _41  and  _43
REMARK   17  A    between atoms: _43  and  _44
REMARK   18  A    between atoms: _43  and  _46
REMARK   19  A    between atoms: _46  and  _47
REMARK   20  A    between atoms: _53  and  _55
REMARK   21  A    between atoms: _55  and  _56
REMARK   22  A    between atoms: _55  and  _58
REMARK   23  A    between atoms: _61  and  _63
REMARK   24  A    between atoms: _63  and  _64
REMARK   25  A    between atoms: _63  and  _66
REMARK   26  A    between atoms: _66  and  _67
REMARK   27  A    between atoms: _70  and  _72
REMARK   28  A    between atoms: _72  and  _73
REMARK   29  A    between atoms: _72  and  _75
REMARK   30  A    between atoms: _75  and  _76
REMARK   31  A    between atoms: _82  and  _84
REMARK   32  A    between atoms: _84  and  _85
REMARK   33  A    between atoms: _84  and  _87
REMARK   34  A    between atoms: _87  and  _88
REMARK   35  A    between atoms: _90  and  _92
REMARK   36  A    between atoms: _92  and  _93
REMARK   37  A    between atoms: _92  and  _95
REMARK   38  A    between atoms: _98  and  _100
REMARK   39  A    between atoms: _100  and  _101
REMARK   40  A    between atoms: _100  and  _103
REMARK   41  A    between atoms: _103  and  _104
REMARK   42  A    between atoms: _110  and  _112
REMARK   43  A    between atoms: _112  and  _113
REMARK   44  A    between atoms: _112  and  _115
REMARK   45  A    between atoms: _118  and  _120
REMARK   46  A    between atoms: _120  and  _121
REMARK   47  A    between atoms: _120  and  _123
REMARK   48  A    between atoms: _123  and  _124
REMARK   49  A    between atoms: _129  and  _130
REMARK   50  A    between atoms: _132  and  _134
REMARK   51  A    between atoms: _134  and  _135
REMARK   52  A    between atoms: _134  and  _137
REMARK   53  A    between atoms: _137  and  _138
REMARK   54  A    between atoms: _138  and  _139
REMARK   55  A    between atoms: _141  and  _143
REMARK   56  A    between atoms: _143  and  _144
REMARK   57  A    between atoms: _143  and  _146
REMARK   58  A    between atoms: _146  and  _147
REMARK   59  A    between atoms: _147  and  _148
REMARK   60  A    between atoms: _151  and  _153
REMARK   61  A    between atoms: _153  and  _154
REMARK   62  A    between atoms: _156  and  _158
REMARK   63  A    between atoms: _158  and  _159
REMARK   64  A    between atoms: _158  and  _161
REMARK   65  A    between atoms: _161  and  _162
REMARK   66  A    between atoms: _162  and  _163
REMARK   67  A    between atoms: _166  and  _168
REMARK   68  A    between atoms: _168  and  _169
REMARK   69  A    between atoms: _168  and  _171
REMARK   70  A    between atoms: _171  and  _172
REMARK   71  A    between atoms: _177  and  _178
REMARK   72  A    between atoms: _180  and  _182
REMARK   73  A    between atoms: _182  and  _183
REMARK   74  A    between atoms: _182  and  _185
REMARK   75  A    between atoms: _185  and  _186
REMARK   76  A    between atoms: _196  and  _198
REMARK   77  A    between atoms: _198  and  _199
REMARK   78  A    between atoms: _198  and  _201
REMARK   79  A    between atoms: _201  and  _202
REMARK   80  A    between atoms: _202  and  _203
REMARK   81  A    between atoms: _203  and  _204
REMARK   82  A    between atoms: _213  and  _215
REMARK   83  A    between atoms: _215  and  _216
REMARK   84  A    between atoms: _215  and  _218
REMARK   85  A    between atoms: _218  and  _219
REMARK   86  A    between atoms: _219  and  _220
REMARK   87  A    between atoms: _223  and  _225
REMARK   88  A    between atoms: _225  and  _226
REMARK   89  A    between atoms: _225  and  _228
REMARK   90  A    between atoms: _228  and  _229
REMARK   91  A    between atoms: _229  and  _230
REMARK   92  A    between atoms: _235  and  _237
REMARK   93  A    between atoms: _237  and  _238
REMARK   94  A    between atoms: _237  and  _240
REMARK   95  A    between atoms: _240  and  _241
REMARK   96  A    between atoms: _241  and  _242
REMARK   97  A    between atoms: _242  and  _243
REMARK   98  A    between atoms: _243  and  _244
REMARK   99  A    between atoms: _248  and  _250
REMARK  100  A    between atoms: _250  and  _251
REMARK  101  A    between atoms: _254  and  _256
REMARK  102  A    between atoms: _256  and  _257
REMARK  103  A    between atoms: _259  and  _261
REMARK  104  A    between atoms: _261  and  _262
REMARK  105  A    between atoms: _261  and  _264
REMARK  106  A    between atoms: _264  and  _265
REMARK  107  A    between atoms: _270  and  _272
REMARK  108  A    between atoms: _272  and  _273
REMARK  109  A    between atoms: _272  and  _275
REMARK  110  A    between atoms: _275  and  _276
REMARK  111  A    between atoms: _276  and  _277
REMARK  112  A    between atoms: _280  and  _282
REMARK  113  A    between atoms: _282  and  _283
REMARK  114  A    between atoms: _282  and  _285
REMARK  115  A    between atoms: _285  and  _286
REMARK  116  A    between atoms: _288  and  _290
REMARK  117  A    between atoms: _290  and  _291
REMARK  118  A    between atoms: _290  and  _293
REMARK  119  A    between atoms: _293  and  _294
REMARK  120  A    between atoms: _300  and  _302
REMARK  121  A    between atoms: _302  and  _303
REMARK  122  A    between atoms: _302  and  _305
REMARK  123  A    between atoms: _308  and  _310
REMARK  124  A    between atoms: _310  and  _311
REMARK  125  A    between atoms: _310  and  _313
REMARK  126  A    between atoms: _313  and  _314
REMARK  127  A    between atoms: _317  and  _319
REMARK  128  A    between atoms: _319  and  _320
REMARK  129  A    between atoms: _319  and  _322
REMARK  130  A    between atoms: _322  and  _323
REMARK  131  A    between atoms: _326  and  _328
REMARK  132  A    between atoms: _328  and  _329
REMARK  133  A    between atoms: _328  and  _331
REMARK  134  A    between atoms: _331  and  _332
REMARK  135  A    between atoms: _335  and  _337
REMARK  136  A    between atoms: _337  and  _338
REMARK  137  A    between atoms: _337  and  _340
REMARK  138  A    between atoms: _340  and  _341
REMARK  139  A    between atoms: _344  and  _346
REMARK  140  A    between atoms: _346  and  _347
REMARK  141  A    between atoms: _346  and  _349
REMARK  142  A    between atoms: _349  and  _350
REMARK  143  A    between atoms: _355  and  _356
REMARK  144  A    between atoms: _358  and  _360
REMARK  145  A    between atoms: _360  and  _361
REMARK  146  A    between atoms: _360  and  _363
REMARK  147  A    between atoms: _363  and  _364
REMARK  148  A    between atoms: _369  and  _370
REMARK  149  A    between atoms: _372  and  _374
REMARK  150  A    between atoms: _374  and  _375
REMARK  151  A    between atoms: _374  and  _377
REMARK  152  A    between atoms: _377  and  _378
REMARK  153  A    between atoms: _381  and  _383
REMARK  154  A    between atoms: _383  and  _384
REMARK  155  A    between atoms: _383  and  _386
REMARK  156  A    between atoms: _386  and  _387
REMARK  157  A    between atoms: _387  and  _388
REMARK  158  A    between atoms: _393  and  _395
REMARK  159  A    between atoms: _395  and  _396
REMARK  160  A    between atoms: _395  and  _398
REMARK  161  A    between atoms: _401  and  _403
REMARK  162  A    between atoms: _403  and  _404
REMARK  163  A    between atoms: _403  and  _406
REMARK  164  A    between atoms: _406  and  _407
REMARK  165  A    between atoms: _410  and  _412
REMARK  166  A    between atoms: _412  and  _413
REMARK  167  A    between atoms: _412  and  _415
REMARK  168  A    between atoms: _415  and  _416
REMARK  169  A    between atoms: _418  and  _420
REMARK  170  A    between atoms: _420  and  _421
REMARK  171  A    between atoms: _423  and  _425
REMARK  172  A    between atoms: _425  and  _426
REMARK  173  A    between atoms: _425  and  _428
REMARK  174  A    between atoms: _428  and  _429
REMARK  175  A    between atoms: _434  and  _435
REMARK  176  A    between atoms: _437  and  _439
REMARK  177  A    between atoms: _439  and  _440
REMARK  178  A    between atoms: _439  and  _442
REMARK  179  A    between atoms: _442  and  _443
REMARK  180  A    between atoms: _443  and  _444
REMARK  181  A    between atoms: _449  and  _451
REMARK  182  A    between atoms: _451  and  _452
REMARK  183  A    between atoms: _451  and  _454
REMARK  184  A    between atoms: _454  and  _455
REMARK  185  A    between atoms: _455  and  _456
REMARK  186  A    between atoms: _461  and  _463
REMARK  187  A    between atoms: _463  and  _464
REMARK  188  A    between atoms: _463  and  _466
REMARK  189  A    between atoms: _466  and  _467
REMARK  190  A    between atoms: _472  and  _473
REMARK  191  A    between atoms: _475  and  _477
REMARK  192  A    between atoms: _477  and  _478
REMARK  193  A    between atoms: _481  and  _483
REMARK  194  A    between atoms: _483  and  _484
REMARK  195  A    between atoms: _483  and  _486
REMARK  196  A    between atoms: _486  and  _487
REMARK  197  A    between atoms: _492  and  _493
REMARK  198  A    between atoms: _495  and  _497
REMARK  199  A    between atoms: _497  and  _498
REMARK  200  A    between atoms: _497  and  _500
REMARK  201  A    between atoms: _500  and  _501
REMARK  202  A    between atoms: _506  and  _507
REMARK  203  A    between atoms: _509  and  _511
REMARK  204  A    between atoms: _511  and  _512
REMARK  205  A    between atoms: _511  and  _514
REMARK  206  A    between atoms: _514  and  _515
REMARK  207  A    between atoms: _518  and  _520
REMARK  208  A    between atoms: _520  and  _521
REMARK  209  A    between atoms: _520  and  _523
REMARK  210  A    between atoms: _523  and  _524
REMARK  211  A    between atoms: _534  and  _536
REMARK  212  A    between atoms: _536  and  _537
REMARK  213  A    between atoms: _540  and  _542
REMARK  214  A    between atoms: _542  and  _543
REMARK  215  A    between atoms: _546  and  _548
REMARK  216  A    between atoms: _548  and  _549
REMARK  217  A    between atoms: _548  and  _551
REMARK  218  A    between atoms: _551  and  _552
REMARK  219  A    between atoms: _555  and  _557
REMARK  220  A    between atoms: _557  and  _558
REMARK  221  A    between atoms: _557  and  _560
REMARK  222  A    between atoms: _560  and  _561
REMARK  223  A    between atoms: _564  and  _566
REMARK  224  A    between atoms: _566  and  _567
REMARK  225  A    between atoms: _566  and  _569
REMARK  226  A    between atoms: _569  and  _570
REMARK  227  A    between atoms: _573  and  _575
REMARK  228  A    between atoms: _575  and  _576
REMARK  229  A    between atoms: _575  and  _578
REMARK  230  A    between atoms: _578  and  _579
REMARK  231  A    between atoms: _579  and  _580
REMARK  232  A    between atoms: _580  and  _581
REMARK  233  A    between atoms: _581  and  _582
REMARK  234  A    between atoms: _586  and  _588
REMARK  235  A    between atoms: _588  and  _589
REMARK  236  A    between atoms: _588  and  _591
REMARK  237  A    between atoms: _591  and  _592
REMARK  238  A    between atoms: _597  and  _599
REMARK  239  A    between atoms: _599  and  _600
REMARK  240  A    between atoms: _599  and  _602
REMARK  241  A    between atoms: _602  and  _603
REMARK  242  A    between atoms: _603  and  _604
REMARK  243  A    between atoms: _604  and  _605
REMARK  244  A    between atoms: _605  and  _606
REMARK  245  A    between atoms: _610  and  _612
REMARK  246  A    between atoms: _612  and  _613
REMARK  247  A    between atoms: _612  and  _615
REMARK  248  A    between atoms: _615  and  _616
REMARK  249  A    between atoms: _626  and  _628
REMARK  250  A    between atoms: _628  and  _629
REMARK  251  A    between atoms: _628  and  _631
REMARK  252  A    between atoms: _631  and  _632
REMARK  253  A    between atoms: _632  and  _633
REMARK  254  A    between atoms: _636  and  _638
REMARK  255  A    between atoms: _638  and  _639
REMARK  256  A    between atoms: _642  and  _644
REMARK  257  A    between atoms: _644  and  _645
REMARK  258  A    between atoms: _647  and  _649
REMARK  259  A    between atoms: _649  and  _650
REMARK  260  A    between atoms: _649  and  _652
REMARK  261  A    between atoms: _652  and  _653
REMARK  262  A    between atoms: _653  and  _654
REMARK  263  A    between atoms: _657  and  _659
REMARK  264  A    between atoms: _659  and  _660
REMARK  265  A    between atoms: _663  and  _665
REMARK  266  A    between atoms: _665  and  _666
REMARK  267  A    between atoms: _665  and  _668
REMARK  268  A    between atoms: _668  and  _669
REMARK  269  A    between atoms: _669  and  _670
REMARK  270  A    between atoms: _673  and  _675
REMARK  271  A    between atoms: _675  and  _676
REMARK  272  A    between atoms: _675  and  _678
REMARK  273  A    between atoms: _678  and  _679
REMARK  274  A    between atoms: _679  and  _680
REMARK  275  A    between atoms: _680  and  _681
REMARK  276  A    between atoms: _690  and  _692
REMARK  277  A    between atoms: _692  and  _693
REMARK  278  A    between atoms: _692  and  _695
REMARK  279  A    between atoms: _695  and  _696
REMARK  280  A    between atoms: _699  and  _701
REMARK  281  A    between atoms: _701  and  _702
REMARK  282  A    between atoms: _701  and  _704
REMARK  283  A    between atoms: _704  and  _705
REMARK  284  A    between atoms: _705  and  _706
REMARK  285  A    between atoms: _706  and  _707
REMARK  286  A    between atoms: _716  and  _718
REMARK  287  A    between atoms: _718  and  _719
REMARK  288  A    between atoms: _722  and  _724
REMARK  289  A    between atoms: _724  and  _725
REMARK  290  A    between atoms: _724  and  _727
REMARK  291  A    between atoms: _727  and  _728
REMARK  292  A    between atoms: _733  and  _734
REMARK  293  A    between atoms: _736  and  _738
REMARK  294  A    between atoms: _738  and  _739
REMARK  295  A    between atoms: _738  and  _741
REMARK  296  A    between atoms: _741  and  _742
REMARK  297  A    between atoms: _745  and  _747
REMARK  298  A    between atoms: _747  and  _748
REMARK  299  A    between atoms: _747  and  _750
REMARK  300  A    between atoms: _750  and  _751
REMARK  301  A    between atoms: _754  and  _756
REMARK  302  A    between atoms: _756  and  _757
REMARK  303  A    between atoms: _756  and  _759
REMARK  304  A    between atoms: _761  and  _763
REMARK  305  A    between atoms: _763  and  _764
REMARK  306  A    between atoms: _763  and  _766
REMARK  307  A    between atoms: _769  and  _771
REMARK  308  A    between atoms: _771  and  _772
REMARK  309  A    between atoms: _771  and  _774
REMARK  310  A    between atoms: _774  and  _775
REMARK  311  A    between atoms: _775  and  _776
REMARK  312  A    between atoms: _779  and  _781
REMARK  313  A    between atoms: _781  and  _782
REMARK  314  A    between atoms: _781  and  _784
REMARK  315  A    between atoms: _784  and  _785
REMARK  316  A    between atoms: _795  and  _797
REMARK  317  A    between atoms: _797  and  _798
REMARK  318  A    between atoms: _797  and  _800
REMARK  319  A    between atoms: _800  and  _801
REMARK  320  A    between atoms: _804  and  _806
REMARK  321  A    between atoms: _806  and  _807
REMARK  322  A    between atoms: _806  and  _809
REMARK  323  A    between atoms: _809  and  _810
REMARK  324  A    between atoms: _810  and  _811
REMARK  325  A    between atoms: _811  and  _812
REMARK  326  A    between atoms: _821  and  _823
REMARK  327  A    between atoms: _823  and  _824
REMARK  328  A    between atoms: _823  and  _826
REMARK  329  A    between atoms: _826  and  _827
REMARK  330  A    between atoms: _832  and  _833
REMARK                            x       y       z     vdW  Elec       q    Type
REMARK                         _______ _______ _______ _____ _____    ______ ____
ROOT
ATOM      1  CA  ASN A   2      37.540  58.392  -2.730  0.00  0.00    +0.158 C 
ENDROOT
BRANCH   1   3
ATOM      2  C   GLY A   1      36.278  60.347  -2.044  0.00  0.00    +0.240 C 
ATOM      3  N   ASN A   2      37.223  59.443  -1.779  0.00  0.00    -0.297 N 
ATOM      4  H   ASN A   2      37.740  59.492  -0.878  0.00  0.00    +0.150 HD
ATOM      5  O   GLY A   1      35.661  60.371  -3.108  0.00  0.00    -0.274 OA
BRANCH   2   6
ATOM      6  CA  GLY A   1      36.014  61.380  -0.968  0.00  0.00    +0.169 C 
BRANCH   6   7
ATOM      7  N   GLY A   1      35.987  60.737   0.331  0.00  0.00    -0.236 NA
ATOM      8  H   GLY A   1      36.759  60.907   1.007  0.00  0.00    +0.142 HD
ENDBRANCH   6   7
ENDBRANCH   2   6
ENDBRANCH   1   3
BRANCH   1   9
ATOM      9  C   ASN A   2      36.320  57.488  -2.936  0.00  0.00    +0.241 C 
ATOM     10  N   GLU A   3      35.583  57.225  -1.864  0.00  0.00    -0.298 N 
ATOM     11  H   GLU A   3      35.853  57.625  -0.943  0.00  0.00    +0.150 HD
ATOM     12  O   ASN A   2      36.050  57.048  -4.050  0.00  0.00    -0.273 OA
BRANCH  10  13
ATOM     13  CA  GLU A   3      34.396  56.380  -1.965  0.00  0.00    +0.137 C 
BRANCH  13  14
ATOM     14  C   GLU A   3      33.424  56.946  -3.006  0.00  0.00    +0.227 C 
ATOM     15  O   GLU A   3      32.904  56.215  -3.848  0.00  0.00    -0.286 OA
ENDBRANCH  13  14
BRANCH  13  16
ATOM     16  CB  GLU A   3      33.706  56.260  -0.599  0.00  0.00    +0.039 C 
BRANCH  16  17
ATOM     17  CG  GLU A   3      32.395  55.470  -0.644  0.00  0.00    +0.116 C 
BRANCH  17  18
ATOM     18  CD  GLU A   3      31.711  55.330   0.708  0.00  0.00    +0.365 C 
ATOM     19  OE2 GLU A   3      32.122  55.982   1.686  0.00  0.00    -0.246 OA
ATOM     20  OE1 GLU A   3      30.737  54.556   0.795  0.00  0.00    -0.246 OA
ENDBRANCH  17  18
ENDBRANCH  16  17
ENDBRANCH  13  16
ENDBRANCH  10  13
ENDBRANCH   1   9
BRANCH   1  21
ATOM     21  CB  ASN A   2      38.734  57.557  -2.238  0.00  0.00    +0.114 C 
BRANCH  21  22
ATOM     22  CG  ASN A   2      40.060  58.285  -2.408  0.00  0.00    +0.222 C 
ATOM     23  ND2 ASN A   2      41.033  57.975  -1.547  0.00  0.00    -0.329 N 
ATOM     24 HD21 ASN A   2      40.857  57.283  -0.791  0.00  0.00    +0.145 HD
ATOM     25 HD22 ASN A   2      41.966  58.426  -1.632  0.00  0.00    +0.145 HD
ATOM     26  OD1 ASN A   2      40.214  59.096  -3.319  0.00  0.00    -0.275 OA
ENDBRANCH  21  22
ENDBRANCH   1  21
TORSDOF 11
REMARK  Name = ../refined-set-2016/1fzm/1fzm_pocket.pdb
REMARK  330 active torsions:
REMARK  status: ('A' for Active; 'I' for Inactive)
REMARK    1  A    between atoms: _1  and  _3
REMARK    2  A    between atoms: _3  and  _4
REMARK    3  A    between atoms: _3  and  _6
REMARK    4  A    between atoms: _6  and  _7
REMARK    5  A    between atoms: _10  and  _12
REMARK    6  A    between atoms: _12  and  _13
REMARK    7  A    between atoms: _12  and  _15
REMARK    8  A    between atoms: _15  and  _16
REMARK    9  A    between atoms: _16  and  _17
REMARK   10  A    between atoms: _17  and  _18
REMARK   11  A    between atoms: _27  and  _29
REMARK   12  A    between atoms: _29  and  _30
REMARK   13  A    between atoms: _29  and  _32
REMARK   14  A    between atoms: _32  and  _33
REMARK   15  A    between atoms: _38  and  _39
REMARK   16  A    between atoms: _41  and  _43
REMARK   17  A    between atoms: _43  and  _44
REMARK   18  A    between atoms: _43  and  _46
REMARK   19  A    between atoms: _46  and  _47
REMARK   20  A    between atoms: _53  and  _55
REMARK   21  A    between atoms: _55  and  _56
REMARK   22  A    between atoms: _55  and  _58
REMARK   23  A    between atoms: _61  and  _63
REMARK   24  A    between atoms: _63  and  _64
REMARK   25  A    between atoms: _63  and  _66
REMARK   26  A    between atoms: _66  and  _67
REMARK   27  A    between atoms: _70  and  _72
REMARK   28  A    between atoms: _72  and  _73
REMARK   29  A    between atoms: _72  and  _75
REMARK   30  A    between atoms: _75  and  _76
REMARK   31  A    between atoms: _82  and  _84
REMARK   32  A    between atoms: _84  and  _85
REMARK   33  A    between atoms: _84  and  _87
REMARK   34  A    between atoms: _87  and  _88
REMARK   35  A    between atoms: _90  and  _92
REMARK   36  A    between atoms: _92  and  _93
REMARK   37  A    between atoms: _92  and  _95
REMARK   38  A    between atoms: _98  and  _100
REMARK   39  A    between atoms: _100  and  _101
REMARK   40  A    between atoms: _100  and  _103
REMARK   41  A    between atoms: _103  and  _104
REMARK   42  A    between atoms: _110  and  _112
REMARK   43  A    between atoms: _112  and  _113
REMARK   44  A    between atoms: _112  and  _115
REMARK   45  A    between atoms: _118  and  _120
REMARK   46  A    between atoms: _120  and  _121
REMARK   47  A    between atoms: _120  and  _123
REMARK   48  A    between atoms: _123  and  _124
REMARK   49  A    between atoms: _129  and  _130
REMARK   50  A    between atoms: _132  and  _134
REMARK   51  A    between atoms: _134  and  _135
REMARK   52  A    between atoms: _134  and  _137
REMARK   53  A    between atoms: _137  and  _138
REMARK   54  A    between atoms: _138  and  _139
REMARK   55  A    between atoms: _141  and  _143
REMARK   56  A    between atoms: _143  and  _144
REMARK   57  A    between atoms: _143  and  _146
REMARK   58  A    between atoms: _146  and  _147
REMARK   59  A    between atoms: _147  and  _148
REMARK   60  A    between atoms: _151  and  _153
REMARK   61  A    between atoms: _153  and  _154
REMARK   62  A    between atoms: _156  and  _158
REMARK   63  A    between atoms: _158  and  _159
REMARK   64  A    between atoms: _158  and  _161
REMARK   65  A    between atoms: _161  and  _162
REMARK   66  A    between atoms: _162  and  _163
REMARK   67  A    between atoms: _166  and  _168
REMARK   68  A    between atoms: _168  and  _169
REMARK   69  A    between atoms: _168  and  _171
REMARK   70  A    between atoms: _171  and  _172
REMARK   71  A    between atoms: _177  and  _178
REMARK   72  A    between atoms: _180  and  _182
REMARK   73  A    between atoms: _182  and  _183
REMARK   74  A    between atoms: _182  and  _185
REMARK   75  A    between atoms: _185  and  _186
REMARK   76  A    between atoms: _196  and  _198
REMARK   77  A    between atoms: _198  and  _199
REMARK   78  A    between atoms: _198  and  _201
REMARK   79  A    between atoms: _201  and  _202
REMARK   80  A    between atoms: _202  and  _203
REMARK   81  A    between atoms: _203  and  _204
REMARK   82  A    between atoms: _213  and  _215
REMARK   83  A    between atoms: _215  and  _216
REMARK   84  A    between atoms: _215  and  _218
REMARK   85  A    between atoms: _218  and  _219
REMARK   86  A    between atoms: _219  and  _220
REMARK   87  A    between atoms: _223  and  _225
REMARK   88  A    between atoms: _225  and  _226
REMARK   89  A    between atoms: _225  and  _228
REMARK   90  A    between atoms: _228  and  _229
REMARK   91  A    between atoms: _229  and  _230
REMARK   92  A    between atoms: _235  and  _237
REMARK   93  A    between atoms: _237  and  _238
REMARK   94  A    between atoms: _237  and  _240
REMARK   95  A    between atoms: _240  and  _241
REMARK   96  A    between atoms: _241  and  _242
REMARK   97  A    between atoms: _242  and  _243
REMARK   98  A    between atoms: _243  and  _244
REMARK   99  A    between atoms: _248  and  _250
REMARK  100  A    between atoms: _250  and  _251
REMARK  101  A    between atoms: _254  and  _256
REMARK  102  A    between atoms: _256  and  _257
REMARK  103  A    between atoms: _259  and  _261
REMARK  104  A    between atoms: _261  and  _262
REMARK  105  A    between atoms: _261  and  _264
REMARK  106  A    between atoms: _264  and  _265
REMARK  107  A    between atoms: _270  and  _272
REMARK  108  A    between atoms: _272  and  _273
REMARK  109  A    between atoms: _272  and  _275
REMARK  110  A    between atoms: _275  and  _276
REMARK  111  A    between atoms: _276  and  _277
REMARK  112  A    between atoms: _280  and  _282
REMARK  113  A    between atoms: _282  and  _283
REMARK  114  A    between atoms: _282  and  _285
REMARK  115  A    between atoms: _285  and  _286
REMARK  116  A    between atoms: _288  and  _290
REMARK  117  A    between atoms: _290  and  _291
REMARK  118  A    between atoms: _290  and  _293
REMARK  119  A    between atoms: _293  and  _294
REMARK  120  A    between atoms: _300  and  _302
REMARK  121  A    between atoms: _302  and  _303
REMARK  122  A    between atoms: _302  and  _305
REMARK  123  A    between atoms: _308  and  _310
REMARK  124  A    between atoms: _310  and  _311
REMARK  125  A    between atoms: _310  and  _313
REMARK  126  A    between atoms: _313  and  _314
REMARK  127  A    between atoms: _317  and  _319
REMARK  128  A    between atoms: _319  and  _320
REMARK  129  A    between atoms: _319  and  _322
REMARK  130  A    between atoms: _322  and  _323
REMARK  131  A    between atoms: _326  and  _328
REMARK  132  A    between atoms: _328  and  _329
REMARK  133  A    between atoms: _328  and  _331
REMARK  134  A    between atoms: _331  and  _332
REMARK  135  A    between atoms: _335  and  _337
REMARK  136  A    between atoms: _337  and  _338
REMARK  137  A    between atoms: _337  and  _340
REMARK  138  A    between atoms: _340  and  _341
REMARK  139  A    between atoms: _344  and  _346
REMARK  140  A    between atoms: _346  and  _347
REMARK  141  A    between atoms: _346  and  _349
REMARK  142  A    between atoms: _349  and  _350
REMARK  143  A    between atoms: _355  and  _356
REMARK  144  A    between atoms: _358  and  _360
REMARK  145  A    between atoms: _360  and  _361
REMARK  146  A    between atoms: _360  and  _363
REMARK  147  A    between atoms: _363  and  _364
REMARK  148  A    between atoms: _369  and  _370
REMARK  149  A    between atoms: _372  and  _374
REMARK  150  A    between atoms: _374  and  _375
REMARK  151  A    between atoms: _374  and  _377
REMARK  152  A    between atoms: _377  and  _378
REMARK  153  A    between atoms: _381  and  _383
REMARK  154  A    between atoms: _383  and  _384
REMARK  155  A    between atoms: _383  and  _386
REMARK  156  A    between atoms: _386  and  _387
REMARK  157  A    between atoms: _387  and  _388
REMARK  158  A    between atoms: _393  and  _395
REMARK  159  A    between atoms: _395  and  _396
REMARK  160  A    between atoms: _395  and  _398
REMARK  161  A    between atoms: _401  and  _403
REMARK  162  A    between atoms: _403  and  _404
REMARK  163  A    between atoms: _403  and  _406
REMARK  164  A    between atoms: _406  and  _407
REMARK  165  A    between atoms: _410  and  _412
REMARK  166  A    between atoms: _412  and  _413
REMARK  167  A    between atoms: _412  and  _415
REMARK  168  A    between atoms: _415  and  _416
REMARK  169  A    between atoms: _418  and  _420
REMARK  170  A    between atoms: _420  and  _421
REMARK  171  A    between atoms: _423  and  _425
REMARK  172  A    between atoms: _425  and  _426
REMARK  173  A    between atoms: _425  and  _428
REMARK  174  A    between atoms: _428  and  _429
REMARK  175  A    between atoms: _434  and  _435
REMARK  176  A    between atoms: _437  and  _439
REMARK  177  A    between atoms: _439  and  _440
REMARK  178  A    between atoms: _439  and  _442
REMARK  179  A    between atoms: _442  and  _443
REMARK  180  A    between atoms: _443  and  _444
REMARK  181  A    between atoms: _449  and  _451
REMARK  182  A    between atoms: _451  and  _452
REMARK  183  A    between atoms: _451  and  _454
REMARK  184  A    between atoms: _454  and  _455
REMARK  185  A    between atoms: _455  and  _456
REMARK  186  A    between atoms: _461  and  _463
REMARK  187  A    between atoms: _463  and  _464
REMARK  188  A    between atoms: _463  and  _466
REMARK  189  A    between atoms: _466  and  _467
REMARK  190  A    between atoms: _472  and  _473
REMARK  191  A    between atoms: _475  and  _477
REMARK  192  A    between atoms: _477  and  _478
REMARK  193  A    between atoms: _481  and  _483
REMARK  194  A    between atoms: _483  and  _484
REMARK  195  A    between atoms: _483  and  _486
REMARK  196  A    between atoms: _486  and  _487
REMARK  197  A    between atoms: _492  and  _493
REMARK  198  A    between atoms: _495  and  _497
REMARK  199  A    between atoms: _497  and  _498
REMARK  200  A    between atoms: _497  and  _500
REMARK  201  A    between atoms: _500  and  _501
REMARK  202  A    between atoms: _506  and  _507
REMARK  203  A    between atoms: _509  and  _511
REMARK  204  A    between atoms: _511  and  _512
REMARK  205  A    between atoms: _511  and  _514
REMARK  206  A    between atoms: _514  and  _515
REMARK  207  A    between atoms: _518  and  _520
REMARK  208  A    between atoms: _520  and  _521
REMARK  209  A    between atoms: _520  and  _523
REMARK  210  A    between atoms: _523  and  _524
REMARK  211  A    between atoms: _534  and  _536
REMARK  212  A    between atoms: _536  and  _537
REMARK  213  A    between atoms: _540  and  _542
REMARK  214  A    between atoms: _542  and  _543
REMARK  215  A    between atoms: _546  and  _548
REMARK  216  A    between atoms: _548  and  _549
REMARK  217  A    between atoms: _548  and  _551
REMARK  218  A    between atoms: _551  and  _552
REMARK  219  A    between atoms: _555  and  _557
REMARK  220  A    between atoms: _557  and  _558
REMARK  221  A    between atoms: _557  and  _560
REMARK  222  A    between atoms: _560  and  _561
REMARK  223  A    between atoms: _564  and  _566
REMARK  224  A    between atoms: _566  and  _567
REMARK  225  A    between atoms: _566  and  _569
REMARK  226  A    between atoms: _569  and  _570
REMARK  227  A    between atoms: _573  and  _575
REMARK  228  A    between atoms: _575  and  _576
REMARK  229  A    between atoms: _575  and  _578
REMARK  230  A    between atoms: _578  and  _579
REMARK  231  A    between atoms: _579  and  _580
REMARK  232  A    between atoms: _580  and  _581
REMARK  233  A    between atoms: _581  and  _582
REMARK  234  A    between atoms: _586  and  _588
REMARK  235  A    between atoms: _588  and  _589
REMARK  236  A    between atoms: _588  and  _591
REMARK  237  A    between atoms: _591  and  _592
REMARK  238  A    between atoms: _597  and  _599
REMARK  239  A    between atoms: _599  and  _600
REMARK  240  A    between atoms: _599  and  _602
REMARK  241  A    between atoms: _602  and  _603
REMARK  242  A    between atoms: _603  and  _604
REMARK  243  A    between atoms: _604  and  _605
REMARK  244  A    between atoms: _605  and  _606
REMARK  245  A    between atoms: _610  and  _612
REMARK  246  A    between atoms: _612  and  _613
REMARK  247  A    between atoms: _612  and  _615
REMARK  248  A    between atoms: _615  and  _616
REMARK  249  A    between atoms: _626  and  _628
REMARK  250  A    between atoms: _628  and  _629
REMARK  251  A    between atoms: _628  and  _631
REMARK  252  A    between atoms: _631  and  _632
REMARK  253  A    between atoms: _632  and  _633
REMARK  254  A    between atoms: _636  and  _638
REMARK  255  A    between atoms: _638  and  _639
REMARK  256  A    between atoms: _642  and  _644
REMARK  257  A    between atoms: _644  and  _645
REMARK  258  A    between atoms: _647  and  _649
REMARK  259  A    between atoms: _649  and  _650
REMARK  260  A    between atoms: _649  and  _652
REMARK  261  A    between atoms: _652  and  _653
REMARK  262  A    between atoms: _653  and  _654
REMARK  263  A    between atoms: _657  and  _659
REMARK  264  A    between atoms: _659  and  _660
REMARK  265  A    between atoms: _663  and  _665
REMARK  266  A    between atoms: _665  and  _666
REMARK  267  A    between atoms: _665  and  _668
REMARK  268  A    between atoms: _668  and  _669
REMARK  269  A    between atoms: _669  and  _670
REMARK  270  A    between atoms: _673  and  _675
REMARK  271  A    between atoms: _675  and  _676
REMARK  272  A    between atoms: _675  and  _678
REMARK  273  A    between atoms: _678  and  _679
REMARK  274  A    between atoms: _679  and  _680
REMARK  275  A    between atoms: _680  and  _681
REMARK  276  A    between atoms: _690  and  _692
REMARK  277  A    between atoms: _692  and  _693
REMARK  278  A    between atoms: _692  and  _695
REMARK  279  A    between atoms: _695  and  _696
REMARK  280  A    between atoms: _699  and  _701
REMARK  281  A    between atoms: _701  and  _702
REMARK  282  A    between atoms: _701  and  _704
REMARK  283  A    between atoms: _704  and  _705
REMARK  284  A    between atoms: _705  and  _706
REMARK  285  A    between atoms: _706  and  _707
REMARK  286  A    between atoms: _716  and  _718
REMARK  287  A    between atoms: _718  and  _719
REMARK  288  A    between atoms: _722  and  _724
REMARK  289  A    between atoms: _724  and  _725
REMARK  290  A    between atoms: _724  and  _727
REMARK  291  A    between atoms: _727  and  _728
REMARK  292  A    between atoms: _733  and  _734
REMARK  293  A    between atoms: _736  and  _738
REMARK  294  A    between atoms: _738  and  _739
REMARK  295  A    between atoms: _738  and  _741
REMARK  296  A    between atoms: _741  and  _742
REMARK  297  A    between atoms: _745  and  _747
REMARK  298  A    between atoms: _747  and  _748
REMARK  299  A    between atoms: _747  and  _750
REMARK  300  A    between atoms: _750  and  _751
REMARK  301  A    between atoms: _754  and  _756
REMARK  302  A    between atoms: _756  and  _757
REMARK  303  A    between atoms: _756  and  _759
REMARK  304  A    between atoms: _761  and  _763
REMARK  305  A    between atoms: _763  and  _764
REMARK  306  A    between atoms: _763  and  _766
REMARK  307  A    between atoms: _769  and  _771
REMARK  308  A    between atoms: _771  and  _772
REMARK  309  A    between atoms: _771  and  _774
REMARK  310  A    between atoms: _774  and  _775
REMARK  311  A    between atoms: _775  and  _776
REMARK  312  A    between atoms: _779  and  _781
REMARK  313  A    between atoms: _781  and  _782
REMARK  314  A    between atoms: _781  and  _784
REMARK  315  A    between atoms: _784  and  _785
REMARK  316  A    between atoms: _795  and  _797
REMARK  317  A    between atoms: _797  and  _798
REMARK  318  A    between atoms: _797  and  _800
REMARK  319  A    between atoms: _800  and  _801
REMARK  320  A    between atoms: _804  and  _806
REMARK  321  A    between atoms: _806  and  _807
REMARK  322  A    between atoms: _806  and  _809
REMARK  323  A    between atoms: _809  and  _810
REMARK  324  A    between atoms: _810  and  _811
REMARK  325  A    between atoms: _811  and  _812
REMARK  326  A    between atoms: _821  and  _823
REMARK  327  A    between atoms: _823  and  _824
REMARK  328  A    between atoms: _823  and  _826
REMARK  329  A    between atoms: _826  and  _827
REMARK  330  A    between atoms: _832  and  _833
REMARK                            x       y       z     vdW  Elec       q    Type
REMARK                         _______ _______ _______ _____ _____    ______ ____
ROOT
ATOM      1  C   SER A   1      34.675  57.879  -7.498  0.00  0.00    +0.241 C 
ATOM      2  N   PHE A   2      34.904  56.803  -6.755  0.00  0.00    -0.298 N 
ATOM      3  H   PHE A   2      35.109  56.913  -5.741  0.00  0.00    +0.150 HD
ATOM      4  O   SER A   1      34.421  57.813  -8.699  0.00  0.00    -0.274 OA
ENDROOT
BRANCH   1   5
ATOM      5  CA  SER A   1      34.739  59.228  -6.785  0.00  0.00    +0.174 C 
BRANCH   5   6
ATOM      6  N   SER A   1      34.126  59.151  -5.468  0.00  0.00    -0.236 NA
ATOM      7  H   SER A   1      34.719  59.252  -4.620  0.00  0.00    +0.142 HD
ENDBRANCH   5   6
BRANCH   5   8
ATOM      8  CB  SER A   1      36.198  59.683  -6.670  0.00  0.00    +0.163 C 
BRANCH   8   9
ATOM      9  OG  SER A   1      36.774  59.851  -7.952  0.00  0.00    -0.380 OA
ATOM     10  H   SER A   1      37.714  60.144  -7.854  0.00  0.00    +0.211 HD
ENDBRANCH   8   9
ENDBRANCH   5   8
ENDBRANCH   1   5
BRANCH   2  11
ATOM     11  CA  PHE A   2      34.872  55.467  -7.342  0.00  0.00    +0.141 C 
BRANCH  11  12
ATOM     12  C   PHE A   2      33.443  55.064  -7.704  0.00  0.00    +0.227 C 
ATOM     13  O   PHE A   2      33.230  54.309  -8.651  0.00  0.00    -0.286 OA
ENDBRANCH  11  12
BRANCH  11  14
ATOM     14  CB  PHE A   2      35.505  54.436  -6.404  0.00  0.00    +0.054 C 
BRANCH  14  15
ATOM     15  CG  PHE A   2      37.012  54.386  -6.501  0.00  0.00    -0.020 A 
ATOM     16  CD2 PHE A   2      37.807  55.235  -5.742  0.00  0.00    -0.004 A 
ATOM     17  CE2 PHE A   2      39.205  55.217  -5.869  0.00  0.00    -0.000 A 
ATOM     18  CZ  PHE A   2      39.804  54.344  -6.763  0.00  0.00    -0.000 A 
ATOM     19  CE1 PHE A   2      39.017  53.490  -7.527  0.00  0.00    -0.000 A 
ATOM     20  CD1 PHE A   2      37.627  53.515  -7.391  0.00  0.00    -0.004 A 
ENDBRANCH  14  15
ENDBRANCH  11  14
ENDBRANCH   2  11
TORSDOF 8
REMARK  Name = ../refined-set-2016/1fzm/1fzm_pocket.pdb
REMARK  330 active torsions:
REMARK  status: ('A' for Active; 'I' for Inactive)
REMARK    1  A    between atoms: _1  and  _3
REMARK    2  A    between atoms: _3  and  _4
REMARK    3  A    between atoms: _3  and  _6
REMARK    4  A    between atoms: _6  and  _7
REMARK    5  A    between atoms: _10  and  _12
REMARK    6  A    between atoms: _12  and  _13
REMARK    7  A    between atoms: _12  and  _15
REMARK    8  A    between atoms: _15  and  _16
REMARK    9  A    between atoms: _16  and  _17
REMARK   10  A    between atoms: _17  and  _18
REMARK   11  A    between atoms: _27  and  _29
REMARK   12  A    between atoms: _29  and  _30
REMARK   13  A    between atoms: _29  and  _32
REMARK   14  A    between atoms: _32  and  _33
REMARK   15  A    between atoms: _38  and  _39
REMARK   16  A    between atoms: _41  and  _43
REMARK   17  A    between atoms: _43  and  _44
REMARK   18  A    between atoms: _43  and  _46
REMARK   19  A    between atoms: _46  and  _47
REMARK   20  A    between atoms: _53  and  _55
REMARK   21  A    between atoms: _55  and  _56
REMARK   22  A    between atoms: _55  and  _58
REMARK   23  A    between atoms: _61  and  _63
REMARK   24  A    between atoms: _63  and  _64
REMARK   25  A    between atoms: _63  and  _66
REMARK   26  A    between atoms: _66  and  _67
REMARK   27  A    between atoms: _70  and  _72
REMARK   28  A    between atoms: _72  and  _73
REMARK   29  A    between atoms: _72  and  _75
REMARK   30  A    between atoms: _75  and  _76
REMARK   31  A    between atoms: _82  and  _84
REMARK   32  A    between atoms: _84  and  _85
REMARK   33  A    between atoms: _84  and  _87
REMARK   34  A    between atoms: _87  and  _88
REMARK   35  A    between atoms: _90  and  _92
REMARK   36  A    between atoms: _92  and  _93
REMARK   37  A    between atoms: _92  and  _95
REMARK   38  A    between atoms: _98  and  _100
REMARK   39  A    between atoms: _100  and  _101
REMARK   40  A    between atoms: _100  and  _103
REMARK   41  A    between atoms: _103  and  _104
REMARK   42  A    between atoms: _110  and  _112
REMARK   43  A    between atoms: _112  and  _113
REMARK   44  A    between atoms: _112  and  _115
REMARK   45  A    between atoms: _118  and  _120
REMARK   46  A    between atoms: _120  and  _121
REMARK   47  A    between atoms: _120  and  _123
REMARK   48  A    between atoms: _123  and  _124
REMARK   49  A    between atoms: _129  and  _130
REMARK   50  A    between atoms: _132  and  _134
REMARK   51  A    between atoms: _134  and  _135
REMARK   52  A    between atoms: _134  and  _137
REMARK   53  A    between atoms: _137  and  _138
REMARK   54  A    between atoms: _138  and  _139
REMARK   55  A    between atoms: _141  and  _143
REMARK   56  A    between atoms: _143  and  _144
REMARK   57  A    between atoms: _143  and  _146
REMARK   58  A    between atoms: _146  and  _147
REMARK   59  A    between atoms: _147  and  _148
REMARK   60  A    between atoms: _151  and  _153
REMARK   61  A    between atoms: _153  and  _154
REMARK   62  A    between atoms: _156  and  _158
REMARK   63  A    between atoms: _158  and  _159
REMARK   64  A    between atoms: _158  and  _161
REMARK   65  A    between atoms: _161  and  _162
REMARK   66  A    between atoms: _162  and  _163
REMARK   67  A    between atoms: _166  and  _168
REMARK   68  A    between atoms: _168  and  _169
REMARK   69  A    between atoms: _168  and  _171
REMARK   70  A    between atoms: _171  and  _172
REMARK   71  A    between atoms: _177  and  _178
REMARK   72  A    between atoms: _180  and  _182
REMARK   73  A    between atoms: _182  and  _183
REMARK   74  A    between atoms: _182  and  _185
REMARK   75  A    between atoms: _185  and  _186
REMARK   76  A    between atoms: _196  and  _198
REMARK   77  A    between atoms: _198  and  _199
REMARK   78  A    between atoms: _198  and  _201
REMARK   79  A    between atoms: _201  and  _202
REMARK   80  A    between atoms: _202  and  _203
REMARK   81  A    between atoms: _203  and  _204
REMARK   82  A    between atoms: _213  and  _215
REMARK   83  A    between atoms: _215  and  _216
REMARK   84  A    between atoms: _215  and  _218
REMARK   85  A    between atoms: _218  and  _219
REMARK   86  A    between atoms: _219  and  _220
REMARK   87  A    between atoms: _223  and  _225
REMARK   88  A    between atoms: _225  and  _226
REMARK   89  A    between atoms: _225  and  _228
REMARK   90  A    between atoms: _228  and  _229
REMARK   91  A    between atoms: _229  and  _230
REMARK   92  A    between atoms: _235  and  _237
REMARK   93  A    between atoms: _237  and  _238
REMARK   94  A    between atoms: _237  and  _240
REMARK   95  A    between atoms: _240  and  _241
REMARK   96  A    between atoms: _241  and  _242
REMARK   97  A    between atoms: _242  and  _243
REMARK   98  A    between atoms: _243  and  _244
REMARK   99  A    between atoms: _248  and  _250
REMARK  100  A    between atoms: _250  and  _251
REMARK  101  A    between atoms: _254  and  _256
REMARK  102  A    between atoms: _256  and  _257
REMARK  103  A    between atoms: _259  and  _261
REMARK  104  A    between atoms: _261  and  _262
REMARK  105  A    between atoms: _261  and  _264
REMARK  106  A    between atoms: _264  and  _265
REMARK  107  A    between atoms: _270  and  _272
REMARK  108  A    between atoms: _272  and  _273
REMARK  109  A    between atoms: _272  and  _275
REMARK  110  A    between atoms: _275  and  _276
REMARK  111  A    between atoms: _276  and  _277
REMARK  112  A    between atoms: _280  and  _282
REMARK  113  A    between atoms: _282  and  _283
REMARK  114  A    between atoms: _282  and  _285
REMARK  115  A    between atoms: _285  and  _286
REMARK  116  A    between atoms: _288  and  _290
REMARK  117  A    between atoms: _290  and  _291
REMARK  118  A    between atoms: _290  and  _293
REMARK  119  A    between atoms: _293  and  _294
REMARK  120  A    between atoms: _300  and  _302
REMARK  121  A    between atoms: _302  and  _303
REMARK  122  A    between atoms: _302  and  _305
REMARK  123  A    between atoms: _308  and  _310
REMARK  124  A    between atoms: _310  and  _311
REMARK  125  A    between atoms: _310  and  _313
REMARK  126  A    between atoms: _313  and  _314
REMARK  127  A    between atoms: _317  and  _319
REMARK  128  A    between atoms: _319  and  _320
REMARK  129  A    between atoms: _319  and  _322
REMARK  130  A    between atoms: _322  and  _323
REMARK  131  A    between atoms: _326  and  _328
REMARK  132  A    between atoms: _328  and  _329
REMARK  133  A    between atoms: _328  and  _331
REMARK  134  A    between atoms: _331  and  _332
REMARK  135  A    between atoms: _335  and  _337
REMARK  136  A    between atoms: _337  and  _338
REMARK  137  A    between atoms: _337  and  _340
REMARK  138  A    between atoms: _340  and  _341
REMARK  139  A    between atoms: _344  and  _346
REMARK  140  A    between atoms: _346  and  _347
REMARK  141  A    between atoms: _346  and  _349
REMARK  142  A    between atoms: _349  and  _350
REMARK  143  A    between atoms: _355  and  _356
REMARK  144  A    between atoms: _358  and  _360
REMARK  145  A    between atoms: _360  and  _361
REMARK  146  A    between atoms: _360  and  _363
REMARK  147  A    between atoms: _363  and  _364
REMARK  148  A    between atoms: _369  and  _370
REMARK  149  A    between atoms: _372  and  _374
REMARK  150  A    between atoms: _374  and  _375
REMARK  151  A    between atoms: _374  and  _377
REMARK  152  A    between atoms: _377  and  _378
REMARK  153  A    between atoms: _381  and  _383
REMARK  154  A    between atoms: _383  and  _384
REMARK  155  A    between atoms: _383  and  _386
REMARK  156  A    between atoms: _386  and  _387
REMARK  157  A    between atoms: _387  and  _388
REMARK  158  A    between atoms: _393  and  _395
REMARK  159  A    between atoms: _395  and  _396
REMARK  160  A    between atoms: _395  and  _398
REMARK  161  A    between atoms: _401  and  _403
REMARK  162  A    between atoms: _403  and  _404
REMARK  163  A    between atoms: _403  and  _406
REMARK  164  A    between atoms: _406  and  _407
REMARK  165  A    between atoms: _410  and  _412
REMARK  166  A    between atoms: _412  and  _413
REMARK  167  A    between atoms: _412  and  _415
REMARK  168  A    between atoms: _415  and  _416
REMARK  169  A    between atoms: _418  and  _420
REMARK  170  A    between atoms: _420  and  _421
REMARK  171  A    between atoms: _423  and  _425
REMARK  172  A    between atoms: _425  and  _426
REMARK  173  A    between atoms: _425  and  _428
REMARK  174  A    between atoms: _428  and  _429
REMARK  175  A    between atoms: _434  and  _435
REMARK  176  A    between atoms: _437  and  _439
REMARK  177  A    between atoms: _439  and  _440
REMARK  178  A    between atoms: _439  and  _442
REMARK  179  A    between atoms: _442  and  _443
REMARK  180  A    between atoms: _443  and  _444
REMARK  181  A    between atoms: _449  and  _451
REMARK  182  A    between atoms: _451  and  _452
REMARK  183  A    between atoms: _451  and  _454
REMARK  184  A    between atoms: _454  and  _455
REMARK  185  A    between atoms: _455  and  _456
REMARK  186  A    between atoms: _461  and  _463
REMARK  187  A    between atoms: _463  and  _464
REMARK  188  A    between atoms: _463  and  _466
REMARK  189  A    between atoms: _466  and  _467
REMARK  190  A    between atoms: _472  and  _473
REMARK  191  A    between atoms: _475  and  _477
REMARK  192  A    between atoms: _477  and  _478
REMARK  193  A    between atoms: _481  and  _483
REMARK  194  A    between atoms: _483  and  _484
REMARK  195  A    between atoms: _483  and  _486
REMARK  196  A    between atoms: _486  and  _487
REMARK  197  A    between atoms: _492  and  _493
REMARK  198  A    between atoms: _495  and  _497
REMARK  199  A    between atoms: _497  and  _498
REMARK  200  A    between atoms: _497  and  _500
REMARK  201  A    between atoms: _500  and  _501
REMARK  202  A    between atoms: _506  and  _507
REMARK  203  A    between atoms: _509  and  _511
REMARK  204  A    between atoms: _511  and  _512
REMARK  205  A    between atoms: _511  and  _514
REMARK  206  A    between atoms: _514  and  _515
REMARK  207  A    between atoms: _518  and  _520
REMARK  208  A    between atoms: _520  and  _521
REMARK  209  A    between atoms: _520  and  _523
REMARK  210  A    between atoms: _523  and  _524
REMARK  211  A    between atoms: _534  and  _536
REMARK  212  A    between atoms: _536  and  _537
REMARK  213  A    between atoms: _540  and  _542
REMARK  214  A    between atoms: _542  and  _543
REMARK  215  A    between atoms: _546  and  _548
REMARK  216  A    between atoms: _548  and  _549
REMARK  217  A    between atoms: _548  and  _551
REMARK  218  A    between atoms: _551  and  _552
REMARK  219  A    between atoms: _555  and  _557
REMARK  220  A    between atoms: _557  and  _558
REMARK  221  A    between atoms: _557  and  _560
REMARK  222  A    between atoms: _560  and  _561
REMARK  223  A    between atoms: _564  and  _566
REMARK  224  A    between atoms: _566  and  _567
REMARK  225  A    between atoms: _566  and  _569
REMARK  226  A    between atoms: _569  and  _570
REMARK  227  A    between atoms: _573  and  _575
REMARK  228  A    between atoms: _575  and  _576
REMARK  229  A    between atoms: _575  and  _578
REMARK  230  A    between atoms: _578  and  _579
REMARK  231  A    between atoms: _579  and  _580
REMARK  232  A    between atoms: _580  and  _581
REMARK  233  A    between atoms: _581  and  _582
REMARK  234  A    between atoms: _586  and  _588
REMARK  235  A    between atoms: _588  and  _589
REMARK  236  A    between atoms: _588  and  _591
REMARK  237  A    between atoms: _591  and  _592
REMARK  238  A    between atoms: _597  and  _599
REMARK  239  A    between atoms: _599  and  _600
REMARK  240  A    between atoms: _599  and  _602
REMARK  241  A    between atoms: _602  and  _603
REMARK  242  A    between atoms: _603  and  _604
REMARK  243  A    between atoms: _604  and  _605
REMARK  244  A    between atoms: _605  and  _606
REMARK  245  A    between atoms: _610  and  _612
REMARK  246  A    between atoms: _612  and  _613
REMARK  247  A    between atoms: _612  and  _615
REMARK  248  A    between atoms: _615  and  _616
REMARK  249  A    between atoms: _626  and  _628
REMARK  250  A    between atoms: _628  and  _629
REMARK  251  A    between atoms: _628  and  _631
REMARK  252  A    between atoms: _631  and  _632
REMARK  253  A    between atoms: _632  and  _633
REMARK  254  A    between atoms: _636  and  _638
REMARK  255  A    between atoms: _638  and  _639
REMARK  256  A    between atoms: _642  and  _644
REMARK  257  A    between atoms: _644  and  _645
REMARK  258  A    between atoms: _647  and  _649
REMARK  259  A    between atoms: _649  and  _650
REMARK  260  A    between atoms: _649  and  _652
REMARK  261  A    between atoms: _652  and  _653
REMARK  262  A    between atoms: _653  and  _654
REMARK  263  A    between atoms: _657  and  _659
REMARK  264  A    between atoms: _659  and  _660
REMARK  265  A    between atoms: _663  and  _665
REMARK  266  A    between atoms: _665  and  _666
REMARK  267  A    between atoms: _665  and  _668
REMARK  268  A    between atoms: _668  and  _669
REMARK  269  A    between atoms: _669  and  _670
REMARK  270  A    between atoms: _673  and  _675
REMARK  271  A    between atoms: _675  and  _676
REMARK  272  A    between atoms: _675  and  _678
REMARK  273  A    between atoms: _678  and  _679
REMARK  274  A    between atoms: _679  and  _680
REMARK  275  A    between atoms: _680  and  _681
REMARK  276  A    between atoms: _690  and  _692
REMARK  277  A    between atoms: _692  and  _693
REMARK  278  A    between atoms: _692  and  _695
REMARK  279  A    between atoms: _695  and  _696
REMARK  280  A    between atoms: _699  and  _701
REMARK  281  A    between atoms: _701  and  _702
REMARK  282  A    between atoms: _701  and  _704
REMARK  283  A    between atoms: _704  and  _705
REMARK  284  A    between atoms: _705  and  _706
REMARK  285  A    between atoms: _706  and  _707
REMARK  286  A    between atoms: _716  and  _718
REMARK  287  A    between atoms: _718  and  _719
REMARK  288  A    between atoms: _722  and  _724
REMARK  289  A    between atoms: _724  and  _725
REMARK  290  A    between atoms: _724  and  _727
REMARK  291  A    between atoms: _727  and  _728
REMARK  292  A    between atoms: _733  and  _734
REMARK  293  A    between atoms: _736  and  _738
REMARK  294  A    between atoms: _738  and  _739
REMARK  295  A    between atoms: _738  and  _741
REMARK  296  A    between atoms: _741  and  _742
REMARK  297  A    between atoms: _745  and  _747
REMARK  298  A    between atoms: _747  and  _748
REMARK  299  A    between atoms: _747  and  _750
REMARK  300  A    between atoms: _750  and  _751
REMARK  301  A    between atoms: _754  and  _756
REMARK  302  A    between atoms: _756  and  _757
REMARK  303  A    between atoms: _756  and  _759
REMARK  304  A    between atoms: _761  and  _763
REMARK  305  A    between atoms: _763  and  _764
REMARK  306  A    between atoms: _763  and  _766
REMARK  307  A    between atoms: _769  and  _771
REMARK  308  A    between atoms: _771  and  _772
REMARK  309  A    between atoms: _771  and  _774
REMARK  310  A    between atoms: _774  and  _775
REMARK  311  A    between atoms: _775  and  _776
REMARK  312  A    between atoms: _779  and  _781
REMARK  313  A    between atoms: _781  and  _782
REMARK  314  A    between atoms: _781  and  _784
REMARK  315  A    between atoms: _784  and  _785
REMARK  316  A    between atoms: _795  and  _797
REMARK  317  A    between atoms: _797  and  _798
REMARK  318  A    between atoms: _797  and  _800
REMARK  319  A    between atoms: _800  and  _801
REMARK  320  A    between atoms: _804  and  _806
REMARK  321  A    between atoms: _806  and  _807
REMARK  322  A    between atoms: _806  and  _809
REMARK  323  A    between atoms: _809  and  _810
REMARK  324  A    between atoms: _810  and  _811
REMARK  325  A    between atoms: _811  and  _812
REMARK  326  A    between atoms: _821  and  _823
REMARK  327  A    between atoms: _823  and  _824
REMARK  328  A    between atoms: _823  and  _826
REMARK  329  A    between atoms: _826  and  _827
REMARK  330  A    between atoms: _832  and  _833
REMARK                            x       y       z     vdW  Elec       q    Type
REMARK                         _______ _______ _______ _____ _____    ______ ____
ROOT
ATOM      1  CA  ASP A   2      33.809  55.763 -11.852  0.00  0.00    +0.160 C 
ENDROOT
BRANCH   1   3
ATOM      2  C   VAL A   1      31.773  56.951 -11.239  0.00  0.00    +0.238 C 
ATOM      3  N   ASP A   2      32.988  56.512 -10.904  0.00  0.00    -0.297 N 
ATOM      4  H   ASP A   2      33.357  56.707  -9.951  0.00  0.00    +0.150 HD
ATOM      5  O   VAL A   1      31.282  56.759 -12.348  0.00  0.00    -0.274 OA
BRANCH   2   6
ATOM      6  CA  VAL A   1      31.000  57.717 -10.167  0.00  0.00    +0.145 C 
BRANCH   6   7
ATOM      7  CB  VAL A   1      31.479  59.200 -10.157  0.00  0.00    +0.025 C 
ATOM      8  CG2 VAL A   1      30.616  60.011  -9.201  0.00  0.00    +0.002 C 
ATOM      9  CG1 VAL A   1      31.423  59.780 -11.567  0.00  0.00    +0.002 C 
ENDBRANCH   6   7
BRANCH   6  10
ATOM     10  N   VAL A   1      31.199  57.091  -8.872  0.00  0.00    -0.238 NA
ATOM     11  H   VAL A   1      31.705  57.613  -8.128  0.00  0.00    +0.142 HD
ENDBRANCH   6  10
ENDBRANCH   2   6
ENDBRANCH   1   3
BRANCH   1  12
ATOM     12  C   ASP A   2      33.088  54.514 -12.362  0.00  0.00    +0.241 C 
ATOM     13  N   LEU A   3      32.400  53.819 -11.465  0.00  0.00    -0.298 N 
ATOM     14  H   LEU A   3      32.380  54.133 -10.474  0.00  0.00    +0.150 HD
ATOM     15  O   ASP A   2      33.177  54.173 -13.542  0.00  0.00    -0.273 OA
BRANCH  13  16
ATOM     16  CA  LEU A   3      31.670  52.615 -11.861  0.00  0.00    +0.137 C 
BRANCH  16  17
ATOM     17  C   LEU A   3      30.640  52.970 -12.932  0.00  0.00    +0.227 C 
ATOM     18  O   LEU A   3      30.505  52.266 -13.930  0.00  0.00    -0.286 OA
ENDBRANCH  16  17
BRANCH  16  19
ATOM     19  CB  LEU A   3      31.015  51.965 -10.635  0.00  0.00    +0.028 C 
BRANCH  19  20
ATOM     20  CG  LEU A   3      32.023  51.251  -9.718  0.00  0.00    +0.002 C 
ATOM     21  CD2 LEU A   3      31.412  50.950  -8.357  0.00  0.00    +0.000 C 
ATOM     22  CD1 LEU A   3      32.497  49.966 -10.406  0.00  0.00    +0.000 C 
ENDBRANCH  19  20
ENDBRANCH  16  19
ENDBRANCH  13  16
ENDBRANCH   1  12
BRANCH   1  23
ATOM     23  CB  ASP A   2      35.141  55.338 -11.208  0.00  0.00    +0.143 C 
BRANCH  23  24
ATOM     24  CG  ASP A   2      36.103  56.503 -11.008  0.00  0.00    +0.367 C 
ATOM     25  OD2 ASP A   2      36.948  56.427 -10.088  0.00  0.00    -0.246 OA
ATOM     26  OD1 ASP A   2      36.026  57.478 -11.781  0.00  0.00    -0.246 OA
ENDBRANCH  23  24
ENDBRANCH   1  23
TORSDOF 11
REMARK  Name = ../refined-set-2016/1fzm/1fzm_pocket.pdb
REMARK  330 active torsions:
REMARK  status: ('A' for Active; 'I' for Inactive)
REMARK    1  A    between atoms: _1  and  _3
REMARK    2  A    between atoms: _3  and  _4
REMARK    3  A    between atoms: _3  and  _6
REMARK    4  A    between atoms: _6  and  _7
REMARK    5  A    between atoms: _10  and  _12
REMARK    6  A    between atoms: _12  and  _13
REMARK    7  A    between atoms: _12  and  _15
REMARK    8  A    between atoms: _15  and  _16
REMARK    9  A    between atoms: _16  and  _17
REMARK   10  A    between atoms: _17  and  _18
REMARK   11  A    between atoms: _27  and  _29
REMARK   12  A    between atoms: _29  and  _30
REMARK   13  A    between atoms: _29  and  _32
REMARK   14  A    between atoms: _32  and  _33
REMARK   15  A    between atoms: _38  and  _39
REMARK   16  A    between atoms: _41  and  _43
REMARK   17  A    between atoms: _43  and  _44
REMARK   18  A    between atoms: _43  and  _46
REMARK   19  A    between atoms: _46  and  _47
REMARK   20  A    between atoms: _53  and  _55
REMARK   21  A    between atoms: _55  and  _56
REMARK   22  A    between atoms: _55  and  _58
REMARK   23  A    between atoms: _61  and  _63
REMARK   24  A    between atoms: _63  and  _64
REMARK   25  A    between atoms: _63  and  _66
REMARK   26  A    between atoms: _66  and  _67
REMARK   27  A    between atoms: _70  and  _72
REMARK   28  A    between atoms: _72  and  _73
REMARK   29  A    between atoms: _72  and  _75
REMARK   30  A    between atoms: _75  and  _76
REMARK   31  A    between atoms: _82  and  _84
REMARK   32  A    between atoms: _84  and  _85
REMARK   33  A    between atoms: _84  and  _87
REMARK   34  A    between atoms: _87  and  _88
REMARK   35  A    between atoms: _90  and  _92
REMARK   36  A    between atoms: _92  and  _93
REMARK   37  A    between atoms: _92  and  _95
REMARK   38  A    between atoms: _98  and  _100
REMARK   39  A    between atoms: _100  and  _101
REMARK   40  A    between atoms: _100  and  _103
REMARK   41  A    between atoms: _103  and  _104
REMARK   42  A    between atoms: _110  and  _112
REMARK   43  A    between atoms: _112  and  _113
REMARK   44  A    between atoms: _112  and  _115
REMARK   45  A    between atoms: _118  and  _120
REMARK   46  A    between atoms: _120  and  _121
REMARK   47  A    between atoms: _120  and  _123
REMARK   48  A    between atoms: _123  and  _124
REMARK   49  A    between atoms: _129  and  _130
REMARK   50  A    between atoms: _132  and  _134
REMARK   51  A    between atoms: _134  and  _135
REMARK   52  A    between atoms: _134  and  _137
REMARK   53  A    between atoms: _137  and  _138
REMARK   54  A    between atoms: _138  and  _139
REMARK   55  A    between atoms: _141  and  _143
REMARK   56  A    between atoms: _143  and  _144
REMARK   57  A    between atoms: _143  and  _146
REMARK   58  A    between atoms: _146  and  _147
REMARK   59  A    between atoms: _147  and  _148
REMARK   60  A    between atoms: _151  and  _153
REMARK   61  A    between atoms: _153  and  _154
REMARK   62  A    between atoms: _156  and  _158
REMARK   63  A    between atoms: _158  and  _159
REMARK   64  A    between atoms: _158  and  _161
REMARK   65  A    between atoms: _161  and  _162
REMARK   66  A    between atoms: _162  and  _163
REMARK   67  A    between atoms: _166  and  _168
REMARK   68  A    between atoms: _168  and  _169
REMARK   69  A    between atoms: _168  and  _171
REMARK   70  A    between atoms: _171  and  _172
REMARK   71  A    between atoms: _177  and  _178
REMARK   72  A    between atoms: _180  and  _182
REMARK   73  A    between atoms: _182  and  _183
REMARK   74  A    between atoms: _182  and  _185
REMARK   75  A    between atoms: _185  and  _186
REMARK   76  A    between atoms: _196  and  _198
REMARK   77  A    between atoms: _198  and  _199
REMARK   78  A    between atoms: _198  and  _201
REMARK   79  A    between atoms: _201  and  _202
REMARK   80  A    between atoms: _202  and  _203
REMARK   81  A    between atoms: _203  and  _204
REMARK   82  A    between atoms: _213  and  _215
REMARK   83  A    between atoms: _215  and  _216
REMARK   84  A    between atoms: _215  and  _218
REMARK   85  A    between atoms: _218  and  _219
REMARK   86  A    between atoms: _219  and  _220
REMARK   87  A    between atoms: _223  and  _225
REMARK   88  A    between atoms: _225  and  _226
REMARK   89  A    between atoms: _225  and  _228
REMARK   90  A    between atoms: _228  and  _229
REMARK   91  A    between atoms: _229  and  _230
REMARK   92  A    between atoms: _235  and  _237
REMARK   93  A    between atoms: _237  and  _238
REMARK   94  A    between atoms: _237  and  _240
REMARK   95  A    between atoms: _240  and  _241
REMARK   96  A    between atoms: _241  and  _242
REMARK   97  A    between atoms: _242  and  _243
REMARK   98  A    between atoms: _243  and  _244
REMARK   99  A    between atoms: _248  and  _250
REMARK  100  A    between atoms: _250  and  _251
REMARK  101  A    between atoms: _254  and  _256
REMARK  102  A    between atoms: _256  and  _257
REMARK  103  A    between atoms: _259  and  _261
REMARK  104  A    between atoms: _261  and  _262
REMARK  105  A    between atoms: _261  and  _264
REMARK  106  A    between atoms: _264  and  _265
REMARK  107  A    between atoms: _270  and  _272
REMARK  108  A    between atoms: _272  and  _273
REMARK  109  A    between atoms: _272  and  _275
REMARK  110  A    between atoms: _275  and  _276
REMARK  111  A    between atoms: _276  and  _277
REMARK  112  A    between atoms: _280  and  _282
REMARK  113  A    between atoms: _282  and  _283
REMARK  114  A    between atoms: _282  and  _285
REMARK  115  A    between atoms: _285  and  _286
REMARK  116  A    between atoms: _288  and  _290
REMARK  117  A    between atoms: _290  and  _291
REMARK  118  A    between atoms: _290  and  _293
REMARK  119  A    between atoms: _293  and  _294
REMARK  120  A    between atoms: _300  and  _302
REMARK  121  A    between atoms: _302  and  _303
REMARK  122  A    between atoms: _302  and  _305
REMARK  123  A    between atoms: _308  and  _310
REMARK  124  A    between atoms: _310  and  _311
REMARK  125  A    between atoms: _310  and  _313
REMARK  126  A    between atoms: _313  and  _314
REMARK  127  A    between atoms: _317  and  _319
REMARK  128  A    between atoms: _319  and  _320
REMARK  129  A    between atoms: _319  and  _322
REMARK  130  A    between atoms: _322  and  _323
REMARK  131  A    between atoms: _326  and  _328
REMARK  132  A    between atoms: _328  and  _329
REMARK  133  A    between atoms: _328  and  _331
REMARK  134  A    between atoms: _331  and  _332
REMARK  135  A    between atoms: _335  and  _337
REMARK  136  A    between atoms: _337  and  _338
REMARK  137  A    between atoms: _337  and  _340
REMARK  138  A    between atoms: _340  and  _341
REMARK  139  A    between atoms: _344  and  _346
REMARK  140  A    between atoms: _346  and  _347
REMARK  141  A    between atoms: _346  and  _349
REMARK  142  A    between atoms: _349  and  _350
REMARK  143  A    between atoms: _355  and  _356
REMARK  144  A    between atoms: _358  and  _360
REMARK  145  A    between atoms: _360  and  _361
REMARK  146  A    between atoms: _360  and  _363
REMARK  147  A    between atoms: _363  and  _364
REMARK  148  A    between atoms: _369  and  _370
REMARK  149  A    between atoms: _372  and  _374
REMARK  150  A    between atoms: _374  and  _375
REMARK  151  A    between atoms: _374  and  _377
REMARK  152  A    between atoms: _377  and  _378
REMARK  153  A    between atoms: _381  and  _383
REMARK  154  A    between atoms: _383  and  _384
REMARK  155  A    between atoms: _383  and  _386
REMARK  156  A    between atoms: _386  and  _387
REMARK  157  A    between atoms: _387  and  _388
REMARK  158  A    between atoms: _393  and  _395
REMARK  159  A    between atoms: _395  and  _396
REMARK  160  A    between atoms: _395  and  _398
REMARK  161  A    between atoms: _401  and  _403
REMARK  162  A    between atoms: _403  and  _404
REMARK  163  A    between atoms: _403  and  _406
REMARK  164  A    between atoms: _406  and  _407
REMARK  165  A    between atoms: _410  and  _412
REMARK  166  A    between atoms: _412  and  _413
REMARK  167  A    between atoms: _412  and  _415
REMARK  168  A    between atoms: _415  and  _416
REMARK  169  A    between atoms: _418  and  _420
REMARK  170  A    between atoms: _420  and  _421
REMARK  171  A    between atoms: _423  and  _425
REMARK  172  A    between atoms: _425  and  _426
REMARK  173  A    between atoms: _425  and  _428
REMARK  174  A    between atoms: _428  and  _429
REMARK  175  A    between atoms: _434  and  _435
REMARK  176  A    between atoms: _437  and  _439
REMARK  177  A    between atoms: _439  and  _440
REMARK  178  A    between atoms: _439  and  _442
REMARK  179  A    between atoms: _442  and  _443
REMARK  180  A    between atoms: _443  and  _444
REMARK  181  A    between atoms: _449  and  _451
REMARK  182  A    between atoms: _451  and  _452
REMARK  183  A    between atoms: _451  and  _454
REMARK  184  A    between atoms: _454  and  _455
REMARK  185  A    between atoms: _455  and  _456
REMARK  186  A    between atoms: _461  and  _463
REMARK  187  A    between atoms: _463  and  _464
REMARK  188  A    between atoms: _463  and  _466
REMARK  189  A    between atoms: _466  and  _467
REMARK  190  A    between atoms: _472  and  _473
REMARK  191  A    between atoms: _475  and  _477
REMARK  192  A    between atoms: _477  and  _478
REMARK  193  A    between atoms: _481  and  _483
REMARK  194  A    between atoms: _483  and  _484
REMARK  195  A    between atoms: _483  and  _486
REMARK  196  A    between atoms: _486  and  _487
REMARK  197  A    between atoms: _492  and  _493
REMARK  198  A    between atoms: _495  and  _497
REMARK  199  A    between atoms: _497  and  _498
REMARK  200  A    between atoms: _497  and  _500
REMARK  201  A    between atoms: _500  and  _501
REMARK  202  A    between atoms: _506  and  _507
REMARK  203  A    between atoms: _509  and  _511
REMARK  204  A    between atoms: _511  and  _512
REMARK  205  A    between atoms: _511  and  _514
REMARK  206  A    between atoms: _514  and  _515
REMARK  207  A    between atoms: _518  and  _520
REMARK  208  A    between atoms: _520  and  _521
REMARK  209  A    between atoms: _520  and  _523
REMARK  210  A    between atoms: _523  and  _524
REMARK  211  A    between atoms: _534  and  _536
REMARK  212  A    between atoms: _536  and  _537
REMARK  213  A    between atoms: _540  and  _542
REMARK  214  A    between atoms: _542  and  _543
REMARK  215  A    between atoms: _546  and  _548
REMARK  216  A    between atoms: _548  and  _549
REMARK  217  A    between atoms: _548  and  _551
REMARK  218  A    between atoms: _551  and  _552
REMARK  219  A    between atoms: _555  and  _557
REMARK  220  A    between atoms: _557  and  _558
REMARK  221  A    between atoms: _557  and  _560
REMARK  222  A    between atoms: _560  and  _561
REMARK  223  A    between atoms: _564  and  _566
REMARK  224  A    between atoms: _566  and  _567
REMARK  225  A    between atoms: _566  and  _569
REMARK  226  A    between atoms: _569  and  _570
REMARK  227  A    between atoms: _573  and  _575
REMARK  228  A    between atoms: _575  and  _576
REMARK  229  A    between atoms: _575  and  _578
REMARK  230  A    between atoms: _578  and  _579
REMARK  231  A    between atoms: _579  and  _580
REMARK  232  A    between atoms: _580  and  _581
REMARK  233  A    between atoms: _581  and  _582
REMARK  234  A    between atoms: _586  and  _588
REMARK  235  A    between atoms: _588  and  _589
REMARK  236  A    between atoms: _588  and  _591
REMARK  237  A    between atoms: _591  and  _592
REMARK  238  A    between atoms: _597  and  _599
REMARK  239  A    between atoms: _599  and  _600
REMARK  240  A    between atoms: _599  and  _602
REMARK  241  A    between atoms: _602  and  _603
REMARK  242  A    between atoms: _603  and  _604
REMARK  243  A    between atoms: _604  and  _605
REMARK  244  A    between atoms: _605  and  _606
REMARK  245  A    between atoms: _610  and  _612
REMARK  246  A    between atoms: _612  and  _613
REMARK  247  A    between atoms: _612  and  _615
REMARK  248  A    between atoms: _615  and  _616
REMARK  249  A    between atoms: _626  and  _628
REMARK  250  A    between atoms: _628  and  _629
REMARK  251  A    between atoms: _628  and  _631
REMARK  252  A    between atoms: _631  and  _632
REMARK  253  A    between atoms: _632  and  _633
REMARK  254  A    between atoms: _636  and  _638
REMARK  255  A    between atoms: _638  and  _639
REMARK  256  A    between atoms: _642  and  _644
REMARK  257  A    between atoms: _644  and  _645
REMARK  258  A    between atoms: _647  and  _649
REMARK  259  A    between atoms: _649  and  _650
REMARK  260  A    between atoms: _649  and  _652
REMARK  261  A    between atoms: _652  and  _653
REMARK  262  A    between atoms: _653  and  _654
REMARK  263  A    between atoms: _657  and  _659
REMARK  264  A    between atoms: _659  and  _660
REMARK  265  A    between atoms: _663  and  _665
REMARK  266  A    between atoms: _665  and  _666
REMARK  267  A    between atoms: _665  and  _668
REMARK  268  A    between atoms: _668  and  _669
REMARK  269  A    between atoms: _669  and  _670
REMARK  270  A    between atoms: _673  and  _675
REMARK  271  A    between atoms: _675  and  _676
REMARK  272  A    between atoms: _675  and  _678
REMARK  273  A    between atoms: _678  and  _679
REMARK  274  A    between atoms: _679  and  _680
REMARK  275  A    between atoms: _680  and  _681
REMARK  276  A    between atoms: _690  and  _692
REMARK  277  A    between atoms: _692  and  _693
REMARK  278  A    between atoms: _692  and  _695
REMARK  279  A    between atoms: _695  and  _696
REMARK  280  A    between atoms: _699  and  _701
REMARK  281  A    between atoms: _701  and  _702
REMARK  282  A    between atoms: _701  and  _704
REMARK  283  A    between atoms: _704  and  _705
REMARK  284  A    between atoms: _705  and  _706
REMARK  285  A    between atoms: _706  and  _707
REMARK  286  A    between atoms: _716  and  _718
REMARK  287  A    between atoms: _718  and  _719
REMARK  288  A    between atoms: _722  and  _724
REMARK  289  A    between atoms: _724  and  _725
REMARK  290  A    between atoms: _724  and  _727
REMARK  291  A    between atoms: _727  and  _728
REMARK  292  A    between atoms: _733  and  _734
REMARK  293  A    between atoms: _736  and  _738
REMARK  294  A    between atoms: _738  and  _739
REMARK  295  A    between atoms: _738  and  _741
REMARK  296  A    between atoms: _741  and  _742
REMARK  297  A    between atoms: _745  and  _747
REMARK  298  A    between atoms: _747  and  _748
REMARK  299  A    between atoms: _747  and  _750
REMARK  300  A    between atoms: _750  and  _751
REMARK  301  A    between atoms: _754  and  _756
REMARK  302  A    between atoms: _756  and  _757
REMARK  303  A    between atoms: _756  and  _759
REMARK  304  A    between atoms: _761  and  _763
REMARK  305  A    between atoms: _763  and  _764
REMARK  306  A    between atoms: _763  and  _766
REMARK  307  A    between atoms: _769  and  _771
REMARK  308  A    between atoms: _771  and  _772
REMARK  309  A    between atoms: _771  and  _774
REMARK  310  A    between atoms: _774  and  _775
REMARK  311  A    between atoms: _775  and  _776
REMARK  312  A    between atoms: _779  and  _781
REMARK  313  A    between atoms: _781  and  _782
REMARK  314  A    between atoms: _781  and  _784
REMARK  315  A    between atoms: _784  and  _785
REMARK  316  A    between atoms: _795  and  _797
REMARK  317  A    between atoms: _797  and  _798
REMARK  318  A    between atoms: _797  and  _800
REMARK  319  A    between atoms: _800  and  _801
REMARK  320  A    between atoms: _804  and  _806
REMARK  321  A    between atoms: _806  and  _807
REMARK  322  A    between atoms: _806  and  _809
REMARK  323  A    between atoms: _809  and  _810
REMARK  324  A    between atoms: _810  and  _811
REMARK  325  A    between atoms: _811  and  _812
REMARK  326  A    between atoms: _821  and  _823
REMARK  327  A    between atoms: _823  and  _824
REMARK  328  A    between atoms: _823  and  _826
REMARK  329  A    between atoms: _826  and  _827
REMARK  330  A    between atoms: _832  and  _833
REMARK                            x       y       z     vdW  Elec       q    Type
REMARK                         _______ _______ _______ _____ _____    ______ ____
ROOT
ATOM      1  C   THR A   1      31.876  54.792 -17.067  0.00  0.00    +0.241 C 
ATOM      2  N   LEU A   2      32.382  53.743 -16.421  0.00  0.00    -0.298 N 
ATOM      3  H   LEU A   2      32.467  53.766 -15.385  0.00  0.00    +0.150 HD
ATOM      4  O   THR A   1      31.742  54.813 -18.297  0.00  0.00    -0.274 OA
ENDROOT
BRANCH   1   5
ATOM      5  CA  THR A   1      31.457  55.989 -16.212  0.00  0.00    +0.172 C 
BRANCH   5   6
ATOM      6  N   THR A   1      30.736  55.596 -15.006  0.00  0.00    -0.236 NA
ATOM      7  H   THR A   1      31.093  55.900 -14.078  0.00  0.00    +0.142 HD
ENDBRANCH   5   6
BRANCH   5   8
ATOM      8  CB  THR A   1      32.720  56.826 -15.857  0.00  0.00    +0.135 C 
ATOM      9  CG2 THR A   1      33.430  57.292 -17.121  0.00  0.00    +0.034 C 
BRANCH   8  10
ATOM     10  OG1 THR A   1      32.335  57.975 -15.095  0.00  0.00    -0.383 OA
ATOM     11  HG1 THR A   1      33.140  58.506 -14.871  0.00  0.00    +0.210 HD
ENDBRANCH   8  10
ENDBRANCH   5   8
ENDBRANCH   1   5
BRANCH   2  12
ATOM     12  CA  LEU A   2      32.817  52.564 -17.157  0.00  0.00    +0.137 C 
BRANCH  12  13
ATOM     13  C   LEU A   2      31.643  51.827 -17.818  0.00  0.00    +0.227 C 
ATOM     14  O   LEU A   2      31.807  51.233 -18.878  0.00  0.00    -0.286 OA
ENDBRANCH  12  13
BRANCH  12  15
ATOM     15  CB  LEU A   2      33.633  51.636 -16.240  0.00  0.00    +0.028 C 
BRANCH  15  16
ATOM     16  CG  LEU A   2      35.157  51.887 -16.272  0.00  0.00    +0.002 C 
ATOM     17  CD2 LEU A   2      35.829  51.166 -15.116  0.00  0.00    +0.000 C 
ATOM     18  CD1 LEU A   2      35.464  53.379 -16.216  0.00  0.00    +0.000 C 
ENDBRANCH  15  16
ENDBRANCH  12  15
ENDBRANCH   2  12
TORSDOF 8
REMARK  Name = ../refined-set-2016/1fzm/1fzm_pocket.pdb
REMARK  330 active torsions:
REMARK  status: ('A' for Active; 'I' for Inactive)
REMARK    1  A    between atoms: _1  and  _3
REMARK    2  A    between atoms: _3  and  _4
REMARK    3  A    between atoms: _3  and  _6
REMARK    4  A    between atoms: _6  and  _7
REMARK    5  A    between atoms: _10  and  _12
REMARK    6  A    between atoms: _12  and  _13
REMARK    7  A    between atoms: _12  and  _15
REMARK    8  A    between atoms: _15  and  _16
REMARK    9  A    between atoms: _16  and  _17
REMARK   10  A    between atoms: _17  and  _18
REMARK   11  A    between atoms: _27  and  _29
REMARK   12  A    between atoms: _29  and  _30
REMARK   13  A    between atoms: _29  and  _32
REMARK   14  A    between atoms: _32  and  _33
REMARK   15  A    between atoms: _38  and  _39
REMARK   16  A    between atoms: _41  and  _43
REMARK   17  A    between atoms: _43  and  _44
REMARK   18  A    between atoms: _43  and  _46
REMARK   19  A    between atoms: _46  and  _47
REMARK   20  A    between atoms: _53  and  _55
REMARK   21  A    between atoms: _55  and  _56
REMARK   22  A    between atoms: _55  and  _58
REMARK   23  A    between atoms: _61  and  _63
REMARK   24  A    between atoms: _63  and  _64
REMARK   25  A    between atoms: _63  and  _66
REMARK   26  A    between atoms: _66  and  _67
REMARK   27  A    between atoms: _70  and  _72
REMARK   28  A    between atoms: _72  and  _73
REMARK   29  A    between atoms: _72  and  _75
REMARK   30  A    between atoms: _75  and  _76
REMARK   31  A    between atoms: _82  and  _84
REMARK   32  A    between atoms: _84  and  _85
REMARK   33  A    between atoms: _84  and  _87
REMARK   34  A    between atoms: _87  and  _88
REMARK   35  A    between atoms: _90  and  _92
REMARK   36  A    between atoms: _92  and  _93
REMARK   37  A    between atoms: _92  and  _95
REMARK   38  A    between atoms: _98  and  _100
REMARK   39  A    between atoms: _100  and  _101
REMARK   40  A    between atoms: _100  and  _103
REMARK   41  A    between atoms: _103  and  _104
REMARK   42  A    between atoms: _110  and  _112
REMARK   43  A    between atoms: _112  and  _113
REMARK   44  A    between atoms: _112  and  _115
REMARK   45  A    between atoms: _118  and  _120
REMARK   46  A    between atoms: _120  and  _121
REMARK   47  A    between atoms: _120  and  _123
REMARK   48  A    between atoms: _123  and  _124
REMARK   49  A    between atoms: _129  and  _130
REMARK   50  A    between atoms: _132  and  _134
REMARK   51  A    between atoms: _134  and  _135
REMARK   52  A    between atoms: _134  and  _137
REMARK   53  A    between atoms: _137  and  _138
REMARK   54  A    between atoms: _138  and  _139
REMARK   55  A    between atoms: _141  and  _143
REMARK   56  A    between atoms: _143  and  _144
REMARK   57  A    between atoms: _143  and  _146
REMARK   58  A    between atoms: _146  and  _147
REMARK   59  A    between atoms: _147  and  _148
REMARK   60  A    between atoms: _151  and  _153
REMARK   61  A    between atoms: _153  and  _154
REMARK   62  A    between atoms: _156  and  _158
REMARK   63  A    between atoms: _158  and  _159
REMARK   64  A    between atoms: _158  and  _161
REMARK   65  A    between atoms: _161  and  _162
REMARK   66  A    between atoms: _162  and  _163
REMARK   67  A    between atoms: _166  and  _168
REMARK   68  A    between atoms: _168  and  _169
REMARK   69  A    between atoms: _168  and  _171
REMARK   70  A    between atoms: _171  and  _172
REMARK   71  A    between atoms: _177  and  _178
REMARK   72  A    between atoms: _180  and  _182
REMARK   73  A    between atoms: _182  and  _183
REMARK   74  A    between atoms: _182  and  _185
REMARK   75  A    between atoms: _185  and  _186
REMARK   76  A    between atoms: _196  and  _198
REMARK   77  A    between atoms: _198  and  _199
REMARK   78  A    between atoms: _198  and  _201
REMARK   79  A    between atoms: _201  and  _202
REMARK   80  A    between atoms: _202  and  _203
REMARK   81  A    between atoms: _203  and  _204
REMARK   82  A    between atoms: _213  and  _215
REMARK   83  A    between atoms: _215  and  _216
REMARK   84  A    between atoms: _215  and  _218
REMARK   85  A    between atoms: _218  and  _219
REMARK   86  A    between atoms: _219  and  _220
REMARK   87  A    between atoms: _223  and  _225
REMARK   88  A    between atoms: _225  and  _226
REMARK   89  A    between atoms: _225  and  _228
REMARK   90  A    between atoms: _228  and  _229
REMARK   91  A    between atoms: _229  and  _230
REMARK   92  A    between atoms: _235  and  _237
REMARK   93  A    between atoms: _237  and  _238
REMARK   94  A    between atoms: _237  and  _240
REMARK   95  A    between atoms: _240  and  _241
REMARK   96  A    between atoms: _241  and  _242
REMARK   97  A    between atoms: _242  and  _243
REMARK   98  A    between atoms: _243  and  _244
REMARK   99  A    between atoms: _248  and  _250
REMARK  100  A    between atoms: _250  and  _251
REMARK  101  A    between atoms: _254  and  _256
REMARK  102  A    between atoms: _256  and  _257
REMARK  103  A    between atoms: _259  and  _261
REMARK  104  A    between atoms: _261  and  _262
REMARK  105  A    between atoms: _261  and  _264
REMARK  106  A    between atoms: _264  and  _265
REMARK  107  A    between atoms: _270  and  _272
REMARK  108  A    between atoms: _272  and  _273
REMARK  109  A    between atoms: _272  and  _275
REMARK  110  A    between atoms: _275  and  _276
REMARK  111  A    between atoms: _276  and  _277
REMARK  112  A    between atoms: _280  and  _282
REMARK  113  A    between atoms: _282  and  _283
REMARK  114  A    between atoms: _282  and  _285
REMARK  115  A    between atoms: _285  and  _286
REMARK  116  A    between atoms: _288  and  _290
REMARK  117  A    between atoms: _290  and  _291
REMARK  118  A    between atoms: _290  and  _293
REMARK  119  A    between atoms: _293  and  _294
REMARK  120  A    between atoms: _300  and  _302
REMARK  121  A    between atoms: _302  and  _303
REMARK  122  A    between atoms: _302  and  _305
REMARK  123  A    between atoms: _308  and  _310
REMARK  124  A    between atoms: _310  and  _311
REMARK  125  A    between atoms: _310  and  _313
REMARK  126  A    between atoms: _313  and  _314
REMARK  127  A    between atoms: _317  and  _319
REMARK  128  A    between atoms: _319  and  _320
REMARK  129  A    between atoms: _319  and  _322
REMARK  130  A    between atoms: _322  and  _323
REMARK  131  A    between atoms: _326  and  _328
REMARK  132  A    between atoms: _328  and  _329
REMARK  133  A    between atoms: _328  and  _331
REMARK  134  A    between atoms: _331  and  _332
REMARK  135  A    between atoms: _335  and  _337
REMARK  136  A    between atoms: _337  and  _338
REMARK  137  A    between atoms: _337  and  _340
REMARK  138  A    between atoms: _340  and  _341
REMARK  139  A    between atoms: _344  and  _346
REMARK  140  A    between atoms: _346  and  _347
REMARK  141  A    between atoms: _346  and  _349
REMARK  142  A    between atoms: _349  and  _350
REMARK  143  A    between atoms: _355  and  _356
REMARK  144  A    between atoms: _358  and  _360
REMARK  145  A    between atoms: _360  and  _361
REMARK  146  A    between atoms: _360  and  _363
REMARK  147  A    between atoms: _363  and  _364
REMARK  148  A    between atoms: _369  and  _370
REMARK  149  A    between atoms: _372  and  _374
REMARK  150  A    between atoms: _374  and  _375
REMARK  151  A    between atoms: _374  and  _377
REMARK  152  A    between atoms: _377  and  _378
REMARK  153  A    between atoms: _381  and  _383
REMARK  154  A    between atoms: _383  and  _384
REMARK  155  A    between atoms: _383  and  _386
REMARK  156  A    between atoms: _386  and  _387
REMARK  157  A    between atoms: _387  and  _388
REMARK  158  A    between atoms: _393  and  _395
REMARK  159  A    between atoms: _395  and  _396
REMARK  160  A    between atoms: _395  and  _398
REMARK  161  A    between atoms: _401  and  _403
REMARK  162  A    between atoms: _403  and  _404
REMARK  163  A    between atoms: _403  and  _406
REMARK  164  A    between atoms: _406  and  _407
REMARK  165  A    between atoms: _410  and  _412
REMARK  166  A    between atoms: _412  and  _413
REMARK  167  A    between atoms: _412  and  _415
REMARK  168  A    between atoms: _415  and  _416
REMARK  169  A    between atoms: _418  and  _420
REMARK  170  A    between atoms: _420  and  _421
REMARK  171  A    between atoms: _423  and  _425
REMARK  172  A    between atoms: _425  and  _426
REMARK  173  A    between atoms: _425  and  _428
REMARK  174  A    between atoms: _428  and  _429
REMARK  175  A    between atoms: _434  and  _435
REMARK  176  A    between atoms: _437  and  _439
REMARK  177  A    between atoms: _439  and  _440
REMARK  178  A    between atoms: _439  and  _442
REMARK  179  A    between atoms: _442  and  _443
REMARK  180  A    between atoms: _443  and  _444
REMARK  181  A    between atoms: _449  and  _451
REMARK  182  A    between atoms: _451  and  _452
REMARK  183  A    between atoms: _451  and  _454
REMARK  184  A    between atoms: _454  and  _455
REMARK  185  A    between atoms: _455  and  _456
REMARK  186  A    between atoms: _461  and  _463
REMARK  187  A    between atoms: _463  and  _464
REMARK  188  A    between atoms: _463  and  _466
REMARK  189  A    between atoms: _466  and  _467
REMARK  190  A    between atoms: _472  and  _473
REMARK  191  A    between atoms: _475  and  _477
REMARK  192  A    between atoms: _477  and  _478
REMARK  193  A    between atoms: _481  and  _483
REMARK  194  A    between atoms: _483  and  _484
REMARK  195  A    between atoms: _483  and  _486
REMARK  196  A    between atoms: _486  and  _487
REMARK  197  A    between atoms: _492  and  _493
REMARK  198  A    between atoms: _495  and  _497
REMARK  199  A    between atoms: _497  and  _498
REMARK  200  A    between atoms: _497  and  _500
REMARK  201  A    between atoms: _500  and  _501
REMARK  202  A    between atoms: _506  and  _507
REMARK  203  A    between atoms: _509  and  _511
REMARK  204  A    between atoms: _511  and  _512
REMARK  205  A    between atoms: _511  and  _514
REMARK  206  A    between atoms: _514  and  _515
REMARK  207  A    between atoms: _518  and  _520
REMARK  208  A    between atoms: _520  and  _521
REMARK  209  A    between atoms: _520  and  _523
REMARK  210  A    between atoms: _523  and  _524
REMARK  211  A    between atoms: _534  and  _536
REMARK  212  A    between atoms: _536  and  _537
REMARK  213  A    between atoms: _540  and  _542
REMARK  214  A    between atoms: _542  and  _543
REMARK  215  A    between atoms: _546  and  _548
REMARK  216  A    between atoms: _548  and  _549
REMARK  217  A    between atoms: _548  and  _551
REMARK  218  A    between atoms: _551  and  _552
REMARK  219  A    between atoms: _555  and  _557
REMARK  220  A    between atoms: _557  and  _558
REMARK  221  A    between atoms: _557  and  _560
REMARK  222  A    between atoms: _560  and  _561
REMARK  223  A    between atoms: _564  and  _566
REMARK  224  A    between atoms: _566  and  _567
REMARK  225  A    between atoms: _566  and  _569
REMARK  226  A    between atoms: _569  and  _570
REMARK  227  A    between atoms: _573  and  _575
REMARK  228  A    between atoms: _575  and  _576
REMARK  229  A    between atoms: _575  and  _578
REMARK  230  A    between atoms: _578  and  _579
REMARK  231  A    between atoms: _579  and  _580
REMARK  232  A    between atoms: _580  and  _581
REMARK  233  A    between atoms: _581  and  _582
REMARK  234  A    between atoms: _586  and  _588
REMARK  235  A    between atoms: _588  and  _589
REMARK  236  A    between atoms: _588  and  _591
REMARK  237  A    between atoms: _591  and  _592
REMARK  238  A    between atoms: _597  and  _599
REMARK  239  A    between atoms: _599  and  _600
REMARK  240  A    between atoms: _599  and  _602
REMARK  241  A    between atoms: _602  and  _603
REMARK  242  A    between atoms: _603  and  _604
REMARK  243  A    between atoms: _604  and  _605
REMARK  244  A    between atoms: _605  and  _606
REMARK  245  A    between atoms: _610  and  _612
REMARK  246  A    between atoms: _612  and  _613
REMARK  247  A    between atoms: _612  and  _615
REMARK  248  A    between atoms: _615  and  _616
REMARK  249  A    between atoms: _626  and  _628
REMARK  250  A    between atoms: _628  and  _629
REMARK  251  A    between atoms: _628  and  _631
REMARK  252  A    between atoms: _631  and  _632
REMARK  253  A    between atoms: _632  and  _633
REMARK  254  A    between atoms: _636  and  _638
REMARK  255  A    between atoms: _638  and  _639
REMARK  256  A    between atoms: _642  and  _644
REMARK  257  A    between atoms: _644  and  _645
REMARK  258  A    between atoms: _647  and  _649
REMARK  259  A    between atoms: _649  and  _650
REMARK  260  A    between atoms: _649  and  _652
REMARK  261  A    between atoms: _652  and  _653
REMARK  262  A    between atoms: _653  and  _654
REMARK  263  A    between atoms: _657  and  _659
REMARK  264  A    between atoms: _659  and  _660
REMARK  265  A    between atoms: _663  and  _665
REMARK  266  A    between atoms: _665  and  _666
REMARK  267  A    between atoms: _665  and  _668
REMARK  268  A    between atoms: _668  and  _669
REMARK  269  A    between atoms: _669  and  _670
REMARK  270  A    between atoms: _673  and  _675
REMARK  271  A    between atoms: _675  and  _676
REMARK  272  A    between atoms: _675  and  _678
REMARK  273  A    between atoms: _678  and  _679
REMARK  274  A    between atoms: _679  and  _680
REMARK  275  A    between atoms: _680  and  _681
REMARK  276  A    between atoms: _690  and  _692
REMARK  277  A    between atoms: _692  and  _693
REMARK  278  A    between atoms: _692  and  _695
REMARK  279  A    between atoms: _695  and  _696
REMARK  280  A    between atoms: _699  and  _701
REMARK  281  A    between atoms: _701  and  _702
REMARK  282  A    between atoms: _701  and  _704
REMARK  283  A    between atoms: _704  and  _705
REMARK  284  A    between atoms: _705  and  _706
REMARK  285  A    between atoms: _706  and  _707
REMARK  286  A    between atoms: _716  and  _718
REMARK  287  A    between atoms: _718  and  _719
REMARK  288  A    between atoms: _722  and  _724
REMARK  289  A    between atoms: _724  and  _725
REMARK  290  A    between atoms: _724  and  _727
REMARK  291  A    between atoms: _727  and  _728
REMARK  292  A    between atoms: _733  and  _734
REMARK  293  A    between atoms: _736  and  _738
REMARK  294  A    between atoms: _738  and  _739
REMARK  295  A    between atoms: _738  and  _741
REMARK  296  A    between atoms: _741  and  _742
REMARK  297  A    between atoms: _745  and  _747
REMARK  298  A    between atoms: _747  and  _748
REMARK  299  A    between atoms: _747  and  _750
REMARK  300  A    between atoms: _750  and  _751
REMARK  301  A    between atoms: _754  and  _756
REMARK  302  A    between atoms: _756  and  _757
REMARK  303  A    between atoms: _756  and  _759
REMARK  304  A    between atoms: _761  and  _763
REMARK  305  A    between atoms: _763  and  _764
REMARK  306  A    between atoms: _763  and  _766
REMARK  307  A    between atoms: _769  and  _771
REMARK  308  A    between atoms: _771  and  _772
REMARK  309  A    between atoms: _771  and  _774
REMARK  310  A    between atoms: _774  and  _775
REMARK  311  A    between atoms: _775  and  _776
REMARK  312  A    between atoms: _779  and  _781
REMARK  313  A    between atoms: _781  and  _782
REMARK  314  A    between atoms: _781  and  _784
REMARK  315  A    between atoms: _784  and  _785
REMARK  316  A    between atoms: _795  and  _797
REMARK  317  A    between atoms: _797  and  _798
REMARK  318  A    between atoms: _797  and  _800
REMARK  319  A    between atoms: _800  and  _801
REMARK  320  A    between atoms: _804  and  _806
REMARK  321  A    between atoms: _806  and  _807
REMARK  322  A    between atoms: _806  and  _809
REMARK  323  A    between atoms: _809  and  _810
REMARK  324  A    between atoms: _810  and  _811
REMARK  325  A    between atoms: _811  and  _812
REMARK  326  A    between atoms: _821  and  _823
REMARK  327  A    between atoms: _823  and  _824
REMARK  328  A    between atoms: _823  and  _826
REMARK  329  A    between atoms: _826  and  _827
REMARK  330  A    between atoms: _832  and  _833
REMARK                            x       y       z     vdW  Elec       q    Type
REMARK                         _______ _______ _______ _____ _____    ______ ____
ROOT
ATOM      1  C   TYR A   1      32.628  51.811 -22.530  0.00  0.00    +0.239 C 
ATOM      2  N   TYR A   2      32.142  50.866 -21.738  0.00  0.00    -0.298 N 
ATOM      3  H   TYR A   2      31.867  51.109 -20.765  0.00  0.00    +0.150 HD
ATOM      4  O   TYR A   1      32.940  51.604 -23.699  0.00  0.00    -0.274 OA
ENDROOT
BRANCH   1   5
ATOM      5  CA  TYR A   1      32.790  53.195 -21.905  0.00  0.00    +0.149 C 
BRANCH   5   6
ATOM      6  N   TYR A   1      31.658  53.512 -21.034  0.00  0.00    -0.238 NA
ATOM      7  H   TYR A   1      31.824  53.702 -20.025  0.00  0.00    +0.142 HD
ENDBRANCH   5   6
BRANCH   5   8
ATOM      8  CB  TYR A   1      34.111  53.199 -21.125  0.00  0.00    +0.053 C 
BRANCH   8   9
ATOM      9  CG  TYR A   1      34.639  54.542 -20.646  0.00  0.00    -0.020 A 
ATOM     10  CD2 TYR A   1      35.750  54.596 -19.798  0.00  0.00    -0.001 A 
ATOM     11  CE2 TYR A   1      36.270  55.811 -19.350  0.00  0.00    +0.036 A 
ATOM     12  CZ  TYR A   1      35.678  56.998 -19.748  0.00  0.00    +0.134 A 
ATOM     13  CE1 TYR A   1      34.570  56.978 -20.596  0.00  0.00    +0.036 A 
ATOM     14  CD1 TYR A   1      34.055  55.747 -21.041  0.00  0.00    -0.001 A 
BRANCH  12  15
ATOM     15  OH  TYR A   1      36.185  58.197 -19.279  0.00  0.00    -0.506 OA
ATOM     16  HH  TYR A   1      36.130  58.213 -18.291  0.00  0.00    +0.292 HD
ENDBRANCH  12  15
ENDBRANCH   8   9
ENDBRANCH   5   8
ENDBRANCH   1   5
BRANCH   2  17
ATOM     17  CA  TYR A   2      31.985  49.493 -22.203  0.00  0.00    +0.141 C 
BRANCH  17  18
ATOM     18  C   TYR A   2      30.588  49.117 -22.692  0.00  0.00    +0.227 C 
ATOM     19  O   TYR A   2      30.363  47.974 -23.089  0.00  0.00    -0.286 OA
ENDBRANCH  17  18
BRANCH  17  20
ATOM     20  CB  TYR A   2      32.421  48.534 -21.094  0.00  0.00    +0.054 C 
BRANCH  20  21
ATOM     21  CG  TYR A   2      33.913  48.560 -20.816  0.00  0.00    -0.020 A 
ATOM     22  CD2 TYR A   2      34.418  49.165 -19.665  0.00  0.00    -0.001 A 
ATOM     23  CE2 TYR A   2      35.790  49.178 -19.400  0.00  0.00    +0.036 A 
ATOM     24  CZ  TYR A   2      36.668  48.585 -20.291  0.00  0.00    +0.134 A 
ATOM     25  CE1 TYR A   2      36.193  47.982 -21.444  0.00  0.00    +0.036 A 
ATOM     26  CD1 TYR A   2      34.817  47.973 -21.701  0.00  0.00    -0.001 A 
BRANCH  24  27
ATOM     27  OH  TYR A   2      38.022  48.581 -20.021  0.00  0.00    -0.506 OA
ATOM     28  HH  TYR A   2      38.502  48.121 -20.754  0.00  0.00    +0.292 HD
ENDBRANCH  24  27
ENDBRANCH  20  21
ENDBRANCH  17  20
ENDBRANCH   2  17
TORSDOF 10
REMARK  Name = ../refined-set-2016/1fzm/1fzm_pocket.pdb
REMARK  330 active torsions:
REMARK  status: ('A' for Active; 'I' for Inactive)
REMARK    1  A    between atoms: _1  and  _3
REMARK    2  A    between atoms: _3  and  _4
REMARK    3  A    between atoms: _3  and  _6
REMARK    4  A    between atoms: _6  and  _7
REMARK    5  A    between atoms: _10  and  _12
REMARK    6  A    between atoms: _12  and  _13
REMARK    7  A    between atoms: _12  and  _15
REMARK    8  A    between atoms: _15  and  _16
REMARK    9  A    between atoms: _16  and  _17
REMARK   10  A    between atoms: _17  and  _18
REMARK   11  A    between atoms: _27  and  _29
REMARK   12  A    between atoms: _29  and  _30
REMARK   13  A    between atoms: _29  and  _32
REMARK   14  A    between atoms: _32  and  _33
REMARK   15  A    between atoms: _38  and  _39
REMARK   16  A    between atoms: _41  and  _43
REMARK   17  A    between atoms: _43  and  _44
REMARK   18  A    between atoms: _43  and  _46
REMARK   19  A    between atoms: _46  and  _47
REMARK   20  A    between atoms: _53  and  _55
REMARK   21  A    between atoms: _55  and  _56
REMARK   22  A    between atoms: _55  and  _58
REMARK   23  A    between atoms: _61  and  _63
REMARK   24  A    between atoms: _63  and  _64
REMARK   25  A    between atoms: _63  and  _66
REMARK   26  A    between atoms: _66  and  _67
REMARK   27  A    between atoms: _70  and  _72
REMARK   28  A    between atoms: _72  and  _73
REMARK   29  A    between atoms: _72  and  _75
REMARK   30  A    between atoms: _75  and  _76
REMARK   31  A    between atoms: _82  and  _84
REMARK   32  A    between atoms: _84  and  _85
REMARK   33  A    between atoms: _84  and  _87
REMARK   34  A    between atoms: _87  and  _88
REMARK   35  A    between atoms: _90  and  _92
REMARK   36  A    between atoms: _92  and  _93
REMARK   37  A    between atoms: _92  and  _95
REMARK   38  A    between atoms: _98  and  _100
REMARK   39  A    between atoms: _100  and  _101
REMARK   40  A    between atoms: _100  and  _103
REMARK   41  A    between atoms: _103  and  _104
REMARK   42  A    between atoms: _110  and  _112
REMARK   43  A    between atoms: _112  and  _113
REMARK   44  A    between atoms: _112  and  _115
REMARK   45  A    between atoms: _118  and  _120
REMARK   46  A    between atoms: _120  and  _121
REMARK   47  A    between atoms: _120  and  _123
REMARK   48  A    between atoms: _123  and  _124
REMARK   49  A    between atoms: _129  and  _130
REMARK   50  A    between atoms: _132  and  _134
REMARK   51  A    between atoms: _134  and  _135
REMARK   52  A    between atoms: _134  and  _137
REMARK   53  A    between atoms: _137  and  _138
REMARK   54  A    between atoms: _138  and  _139
REMARK   55  A    between atoms: _141  and  _143
REMARK   56  A    between atoms: _143  and  _144
REMARK   57  A    between atoms: _143  and  _146
REMARK   58  A    between atoms: _146  and  _147
REMARK   59  A    between atoms: _147  and  _148
REMARK   60  A    between atoms: _151  and  _153
REMARK   61  A    between atoms: _153  and  _154
REMARK   62  A    between atoms: _156  and  _158
REMARK   63  A    between atoms: _158  and  _159
REMARK   64  A    between atoms: _158  and  _161
REMARK   65  A    between atoms: _161  and  _162
REMARK   66  A    between atoms: _162  and  _163
REMARK   67  A    between atoms: _166  and  _168
REMARK   68  A    between atoms: _168  and  _169
REMARK   69  A    between atoms: _168  and  _171
REMARK   70  A    between atoms: _171  and  _172
REMARK   71  A    between atoms: _177  and  _178
REMARK   72  A    between atoms: _180  and  _182
REMARK   73  A    between atoms: _182  and  _183
REMARK   74  A    between atoms: _182  and  _185
REMARK   75  A    between atoms: _185  and  _186
REMARK   76  A    between atoms: _196  and  _198
REMARK   77  A    between atoms: _198  and  _199
REMARK   78  A    between atoms: _198  and  _201
REMARK   79  A    between atoms: _201  and  _202
REMARK   80  A    between atoms: _202  and  _203
REMARK   81  A    between atoms: _203  and  _204
REMARK   82  A    between atoms: _213  and  _215
REMARK   83  A    between atoms: _215  and  _216
REMARK   84  A    between atoms: _215  and  _218
REMARK   85  A    between atoms: _218  and  _219
REMARK   86  A    between atoms: _219  and  _220
REMARK   87  A    between atoms: _223  and  _225
REMARK   88  A    between atoms: _225  and  _226
REMARK   89  A    between atoms: _225  and  _228
REMARK   90  A    between atoms: _228  and  _229
REMARK   91  A    between atoms: _229  and  _230
REMARK   92  A    between atoms: _235  and  _237
REMARK   93  A    between atoms: _237  and  _238
REMARK   94  A    between atoms: _237  and  _240
REMARK   95  A    between atoms: _240  and  _241
REMARK   96  A    between atoms: _241  and  _242
REMARK   97  A    between atoms: _242  and  _243
REMARK   98  A    between atoms: _243  and  _244
REMARK   99  A    between atoms: _248  and  _250
REMARK  100  A    between atoms: _250  and  _251
REMARK  101  A    between atoms: _254  and  _256
REMARK  102  A    between atoms: _256  and  _257
REMARK  103  A    between atoms: _259  and  _261
REMARK  104  A    between atoms: _261  and  _262
REMARK  105  A    between atoms: _261  and  _264
REMARK  106  A    between atoms: _264  and  _265
REMARK  107  A    between atoms: _270  and  _272
REMARK  108  A    between atoms: _272  and  _273
REMARK  109  A    between atoms: _272  and  _275
REMARK  110  A    between atoms: _275  and  _276
REMARK  111  A    between atoms: _276  and  _277
REMARK  112  A    between atoms: _280  and  _282
REMARK  113  A    between atoms: _282  and  _283
REMARK  114  A    between atoms: _282  and  _285
REMARK  115  A    between atoms: _285  and  _286
REMARK  116  A    between atoms: _288  and  _290
REMARK  117  A    between atoms: _290  and  _291
REMARK  118  A    between atoms: _290  and  _293
REMARK  119  A    between atoms: _293  and  _294
REMARK  120  A    between atoms: _300  and  _302
REMARK  121  A    between atoms: _302  and  _303
REMARK  122  A    between atoms: _302  and  _305
REMARK  123  A    between atoms: _308  and  _310
REMARK  124  A    between atoms: _310  and  _311
REMARK  125  A    between atoms: _310  and  _313
REMARK  126  A    between atoms: _313  and  _314
REMARK  127  A    between atoms: _317  and  _319
REMARK  128  A    between atoms: _319  and  _320
REMARK  129  A    between atoms: _319  and  _322
REMARK  130  A    between atoms: _322  and  _323
REMARK  131  A    between atoms: _326  and  _328
REMARK  132  A    between atoms: _328  and  _329
REMARK  133  A    between atoms: _328  and  _331
REMARK  134  A    between atoms: _331  and  _332
REMARK  135  A    between atoms: _335  and  _337
REMARK  136  A    between atoms: _337  and  _338
REMARK  137  A    between atoms: _337  and  _340
REMARK  138  A    between atoms: _340  and  _341
REMARK  139  A    between atoms: _344  and  _346
REMARK  140  A    between atoms: _346  and  _347
REMARK  141  A    between atoms: _346  and  _349
REMARK  142  A    between atoms: _349  and  _350
REMARK  143  A    between atoms: _355  and  _356
REMARK  144  A    between atoms: _358  and  _360
REMARK  145  A    between atoms: _360  and  _361
REMARK  146  A    between atoms: _360  and  _363
REMARK  147  A    between atoms: _363  and  _364
REMARK  148  A    between atoms: _369  and  _370
REMARK  149  A    between atoms: _372  and  _374
REMARK  150  A    between atoms: _374  and  _375
REMARK  151  A    between atoms: _374  and  _377
REMARK  152  A    between atoms: _377  and  _378
REMARK  153  A    between atoms: _381  and  _383
REMARK  154  A    between atoms: _383  and  _384
REMARK  155  A    between atoms: _383  and  _386
REMARK  156  A    between atoms: _386  and  _387
REMARK  157  A    between atoms: _387  and  _388
REMARK  158  A    between atoms: _393  and  _395
REMARK  159  A    between atoms: _395  and  _396
REMARK  160  A    between atoms: _395  and  _398
REMARK  161  A    between atoms: _401  and  _403
REMARK  162  A    between atoms: _403  and  _404
REMARK  163  A    between atoms: _403  and  _406
REMARK  164  A    between atoms: _406  and  _407
REMARK  165  A    between atoms: _410  and  _412
REMARK  166  A    between atoms: _412  and  _413
REMARK  167  A    between atoms: _412  and  _415
REMARK  168  A    between atoms: _415  and  _416
REMARK  169  A    between atoms: _418  and  _420
REMARK  170  A    between atoms: _420  and  _421
REMARK  171  A    between atoms: _423  and  _425
REMARK  172  A    between atoms: _425  and  _426
REMARK  173  A    between atoms: _425  and  _428
REMARK  174  A    between atoms: _428  and  _429
REMARK  175  A    between atoms: _434  and  _435
REMARK  176  A    between atoms: _437  and  _439
REMARK  177  A    between atoms: _439  and  _440
REMARK  178  A    between atoms: _439  and  _442
REMARK  179  A    between atoms: _442  and  _443
REMARK  180  A    between atoms: _443  and  _444
REMARK  181  A    between atoms: _449  and  _451
REMARK  182  A    between atoms: _451  and  _452
REMARK  183  A    between atoms: _451  and  _454
REMARK  184  A    between atoms: _454  and  _455
REMARK  185  A    between atoms: _455  and  _456
REMARK  186  A    between atoms: _461  and  _463
REMARK  187  A    between atoms: _463  and  _464
REMARK  188  A    between atoms: _463  and  _466
REMARK  189  A    between atoms: _466  and  _467
REMARK  190  A    between atoms: _472  and  _473
REMARK  191  A    between atoms: _475  and  _477
REMARK  192  A    between atoms: _477  and  _478
REMARK  193  A    between atoms: _481  and  _483
REMARK  194  A    between atoms: _483  and  _484
REMARK  195  A    between atoms: _483  and  _486
REMARK  196  A    between atoms: _486  and  _487
REMARK  197  A    between atoms: _492  and  _493
REMARK  198  A    between atoms: _495  and  _497
REMARK  199  A    between atoms: _497  and  _498
REMARK  200  A    between atoms: _497  and  _500
REMARK  201  A    between atoms: _500  and  _501
REMARK  202  A    between atoms: _506  and  _507
REMARK  203  A    between atoms: _509  and  _511
REMARK  204  A    between atoms: _511  and  _512
REMARK  205  A    between atoms: _511  and  _514
REMARK  206  A    between atoms: _514  and  _515
REMARK  207  A    between atoms: _518  and  _520
REMARK  208  A    between atoms: _520  and  _521
REMARK  209  A    between atoms: _520  and  _523
REMARK  210  A    between atoms: _523  and  _524
REMARK  211  A    between atoms: _534  and  _536
REMARK  212  A    between atoms: _536  and  _537
REMARK  213  A    between atoms: _540  and  _542
REMARK  214  A    between atoms: _542  and  _543
REMARK  215  A    between atoms: _546  and  _548
REMARK  216  A    between atoms: _548  and  _549
REMARK  217  A    between atoms: _548  and  _551
REMARK  218  A    between atoms: _551  and  _552
REMARK  219  A    between atoms: _555  and  _557
REMARK  220  A    between atoms: _557  and  _558
REMARK  221  A    between atoms: _557  and  _560
REMARK  222  A    between atoms: _560  and  _561
REMARK  223  A    between atoms: _564  and  _566
REMARK  224  A    between atoms: _566  and  _567
REMARK  225  A    between atoms: _566  and  _569
REMARK  226  A    between atoms: _569  and  _570
REMARK  227  A    between atoms: _573  and  _575
REMARK  228  A    between atoms: _575  and  _576
REMARK  229  A    between atoms: _575  and  _578
REMARK  230  A    between atoms: _578  and  _579
REMARK  231  A    between atoms: _579  and  _580
REMARK  232  A    between atoms: _580  and  _581
REMARK  233  A    between atoms: _581  and  _582
REMARK  234  A    between atoms: _586  and  _588
REMARK  235  A    between atoms: _588  and  _589
REMARK  236  A    between atoms: _588  and  _591
REMARK  237  A    between atoms: _591  and  _592
REMARK  238  A    between atoms: _597  and  _599
REMARK  239  A    between atoms: _599  and  _600
REMARK  240  A    between atoms: _599  and  _602
REMARK  241  A    between atoms: _602  and  _603
REMARK  242  A    between atoms: _603  and  _604
REMARK  243  A    between atoms: _604  and  _605
REMARK  244  A    between atoms: _605  and  _606
REMARK  245  A    between atoms: _610  and  _612
REMARK  246  A    between atoms: _612  and  _613
REMARK  247  A    between atoms: _612  and  _615
REMARK  248  A    between atoms: _615  and  _616
REMARK  249  A    between atoms: _626  and  _628
REMARK  250  A    between atoms: _628  and  _629
REMARK  251  A    between atoms: _628  and  _631
REMARK  252  A    between atoms: _631  and  _632
REMARK  253  A    between atoms: _632  and  _633
REMARK  254  A    between atoms: _636  and  _638
REMARK  255  A    between atoms: _638  and  _639
REMARK  256  A    between atoms: _642  and  _644
REMARK  257  A    between atoms: _644  and  _645
REMARK  258  A    between atoms: _647  and  _649
REMARK  259  A    between atoms: _649  and  _650
REMARK  260  A    between atoms: _649  and  _652
REMARK  261  A    between atoms: _652  and  _653
REMARK  262  A    between atoms: _653  and  _654
REMARK  263  A    between atoms: _657  and  _659
REMARK  264  A    between atoms: _659  and  _660
REMARK  265  A    between atoms: _663  and  _665
REMARK  266  A    between atoms: _665  and  _666
REMARK  267  A    between atoms: _665  and  _668
REMARK  268  A    between atoms: _668  and  _669
REMARK  269  A    between atoms: _669  and  _670
REMARK  270  A    between atoms: _673  and  _675
REMARK  271  A    between atoms: _675  and  _676
REMARK  272  A    between atoms: _675  and  _678
REMARK  273  A    between atoms: _678  and  _679
REMARK  274  A    between atoms: _679  and  _680
REMARK  275  A    between atoms: _680  and  _681
REMARK  276  A    between atoms: _690  and  _692
REMARK  277  A    between atoms: _692  and  _693
REMARK  278  A    between atoms: _692  and  _695
REMARK  279  A    between atoms: _695  and  _696
REMARK  280  A    between atoms: _699  and  _701
REMARK  281  A    between atoms: _701  and  _702
REMARK  282  A    between atoms: _701  and  _704
REMARK  283  A    between atoms: _704  and  _705
REMARK  284  A    between atoms: _705  and  _706
REMARK  285  A    between atoms: _706  and  _707
REMARK  286  A    between atoms: _716  and  _718
REMARK  287  A    between atoms: _718  and  _719
REMARK  288  A    between atoms: _722  and  _724
REMARK  289  A    between atoms: _724  and  _725
REMARK  290  A    between atoms: _724  and  _727
REMARK  291  A    between atoms: _727  and  _728
REMARK  292  A    between atoms: _733  and  _734
REMARK  293  A    between atoms: _736  and  _738
REMARK  294  A    between atoms: _738  and  _739
REMARK  295  A    between atoms: _738  and  _741
REMARK  296  A    between atoms: _741  and  _742
REMARK  297  A    between atoms: _745  and  _747
REMARK  298  A    between atoms: _747  and  _748
REMARK  299  A    between atoms: _747  and  _750
REMARK  300  A    between atoms: _750  and  _751
REMARK  301  A    between atoms: _754  and  _756
REMARK  302  A    between atoms: _756  and  _757
REMARK  303  A    between atoms: _756  and  _759
REMARK  304  A    between atoms: _761  and  _763
REMARK  305  A    between atoms: _763  and  _764
REMARK  306  A    between atoms: _763  and  _766
REMARK  307  A    between atoms: _769  and  _771
REMARK  308  A    between atoms: _771  and  _772
REMARK  309  A    between atoms: _771  and  _774
REMARK  310  A    between atoms: _774  and  _775
REMARK  311  A    between atoms: _775  and  _776
REMARK  312  A    between atoms: _779  and  _781
REMARK  313  A    between atoms: _781  and  _782
REMARK  314  A    between atoms: _781  and  _784
REMARK  315  A    between atoms: _784  and  _785
REMARK  316  A    between atoms: _795  and  _797
REMARK  317  A    between atoms: _797  and  _798
REMARK  318  A    between atoms: _797  and  _800
REMARK  319  A    between atoms: _800  and  _801
REMARK  320  A    between atoms: _804  and  _806
REMARK  321  A    between atoms: _806  and  _807
REMARK  322  A    between atoms: _806  and  _809
REMARK  323  A    between atoms: _809  and  _810
REMARK  324  A    between atoms: _810  and  _811
REMARK  325  A    between atoms: _811  and  _812
REMARK  326  A    between atoms: _821  and  _823
REMARK  327  A    between atoms: _823  and  _824
REMARK  328  A    between atoms: _823  and  _826
REMARK  329  A    between atoms: _826  and  _827
REMARK  330  A    between atoms: _832  and  _833
REMARK                            x       y       z     vdW  Elec       q    Type
REMARK                         _______ _______ _______ _____ _____    ______ ____
ROOT
ATOM      1  CA  VAL A   3      43.836  49.621  -7.577  0.00  0.00    +0.149 C 
ENDROOT
BRANCH   1   3
ATOM      2  C   GLN A   2      41.948  48.388  -8.514  0.00  0.00    +0.241 C 
ATOM      3  N   VAL A   3      42.631  48.794  -7.452  0.00  0.00    -0.297 N 
ATOM      4  H   VAL A   3      42.303  48.518  -6.504  0.00  0.00    +0.150 HD
ATOM      5  O   GLN A   2      42.240  48.682  -9.667  0.00  0.00    -0.273 OA
BRANCH   2   6
ATOM      6  CA  GLN A   2      40.739  47.507  -8.238  0.00  0.00    +0.149 C 
BRANCH   6   9
ATOM      7  C   ILE A   1      38.438  48.027  -8.821  0.00  0.00    +0.238 C 
ATOM      8  O   ILE A   1      38.099  47.968  -7.639  0.00  0.00    -0.274 OA
ATOM      9  N   GLN A   2      39.692  47.809  -9.208  0.00  0.00    -0.297 N 
ATOM     10  H   GLN A   2      39.930  47.855 -10.219  0.00  0.00    +0.150 HD
BRANCH   7  11
ATOM     11  CA  ILE A   1      37.422  48.347  -9.911  0.00  0.00    +0.145 C 
BRANCH  11  12
ATOM     12  N   ILE A   1      36.258  47.529  -9.578  0.00  0.00    -0.238 NA
ATOM     13  H   ILE A   1      35.739  47.716  -8.696  0.00  0.00    +0.142 HD
ENDBRANCH  11  12
BRANCH  11  14
ATOM     14  CB  ILE A   1      37.111  49.872  -9.897  0.00  0.00    +0.025 C 
ATOM     15  CG2 ILE A   1      38.429  50.675  -9.926  0.00  0.00    +0.002 C 
BRANCH  14  16
ATOM     16  CG1 ILE A   1      36.281  50.245 -11.125  0.00  0.00    +0.002 C 
ATOM     17  CD1 ILE A   1      35.738  51.678 -11.107  0.00  0.00    +0.000 C 
ENDBRANCH  14  16
ENDBRANCH  11  14
ENDBRANCH   7  11
ENDBRANCH   6   9
BRANCH   6  18
ATOM     18  CB  GLN A   2      41.193  46.047  -8.354  0.00  0.00    +0.039 C 
BRANCH  18  19
ATOM     19  CG  GLN A   2      40.270  45.006  -7.733  0.00  0.00    +0.087 C 
BRANCH  19  20
ATOM     20  CD  GLN A   2      40.621  43.614  -8.223  0.00  0.00    +0.219 C 
ATOM     21  NE2 GLN A   2      41.483  42.920  -7.479  0.00  0.00    -0.329 N 
ATOM     22 HE21 GLN A   2      41.856  43.328  -6.598  0.00  0.00    +0.145 HD
ATOM     23 HE22 GLN A   2      41.782  41.970  -7.779  0.00  0.00    +0.145 HD
ATOM     24  OE1 GLN A   2      40.148  43.178  -9.275  0.00  0.00    -0.275 OA
ENDBRANCH  19  20
ENDBRANCH  18  19
ENDBRANCH   6  18
ENDBRANCH   2   6
ENDBRANCH   1   3
BRANCH   1  25
ATOM     25  C   VAL A   3      44.913  49.270  -6.554  0.00  0.00    +0.241 C 
ATOM     26  O   VAL A   3      44.628  49.016  -5.392  0.00  0.00    -0.273 OA
ATOM     27  N   ILE A   4      46.164  49.247  -7.003  0.00  0.00    -0.297 N 
ATOM     28  H   ILE A   4      46.348  49.410  -8.014  0.00  0.00    +0.150 HD
BRANCH  27  29
ATOM     29  CA  ILE A   4      47.281  48.998  -6.103  0.00  0.00    +0.149 C 
BRANCH  29  30
ATOM     30  C   ILE A   4      48.199  50.204  -6.290  0.00  0.00    +0.241 C 
ATOM     31  N   SER A   5      48.509  50.883  -5.190  0.00  0.00    -0.295 N 
ATOM     32  H   SER A   5      48.118  50.565  -4.280  0.00  0.00    +0.150 HD
ATOM     33  O   ILE A   4      48.586  50.520  -7.415  0.00  0.00    -0.273 OA
BRANCH  31  34
ATOM     34  CA  SER A   5      49.380  52.063  -5.208  0.00  0.00    +0.178 C 
BRANCH  34  35
ATOM     35  C   SER A   5      50.475  51.888  -4.173  0.00  0.00    +0.243 C 
ATOM     36  O   SER A   5      50.240  51.344  -3.093  0.00  0.00    -0.273 OA
ATOM     37  N   GLY A   6      51.676  52.378  -4.464  0.00  0.00    -0.296 N 
ATOM     38  H   GLY A   6      51.863  52.849  -5.372  0.00  0.00    +0.150 HD
BRANCH  37  39
ATOM     39  CA  GLY A   6      52.710  52.229  -3.468  0.00  0.00    +0.163 C 
BRANCH  39  40
ATOM     40  C   GLY A   6      54.097  52.677  -3.875  0.00  0.00    +0.229 C 
ATOM     41  O   GLY A   6      54.339  53.067  -5.018  0.00  0.00    -0.286 OA
ENDBRANCH  39  40
ENDBRANCH  37  39
ENDBRANCH  34  35
BRANCH  34  42
ATOM     42  CB  SER A   5      48.586  53.325  -4.837  0.00  0.00    +0.166 C 
BRANCH  42  43
ATOM     43  OG  SER A   5      47.490  53.526  -5.703  0.00  0.00    -0.380 OA
ATOM     44  H   SER A   5      46.881  52.747  -5.649  0.00  0.00    +0.211 HD
ENDBRANCH  42  43
ENDBRANCH  34  42
ENDBRANCH  31  34
ENDBRANCH  29  30
BRANCH  29  45
ATOM     45  CB  ILE A   4      48.069  47.709  -6.455  0.00  0.00    +0.027 C 
ATOM     46  CG2 ILE A   4      49.239  47.546  -5.489  0.00  0.00    +0.002 C 
BRANCH  45  47
ATOM     47  CG1 ILE A   4      47.156  46.485  -6.356  0.00  0.00    +0.002 C 
ATOM     48  CD1 ILE A   4      47.851  45.170  -6.689  0.00  0.00    +0.000 C 
ENDBRANCH  45  47
ENDBRANCH  29  45
ENDBRANCH  27  29
ENDBRANCH   1  25
BRANCH   1  49
ATOM     49  CB  VAL A   3      43.537  51.145  -7.363  0.00  0.00    +0.027 C 
ATOM     50  CG2 VAL A   3      44.747  51.980  -7.816  0.00  0.00    +0.002 C 
ATOM     51  CG1 VAL A   3      42.287  51.562  -8.112  0.00  0.00    +0.002 C 
ENDBRANCH   1  49
TORSDOF 22
REMARK  Name = ../refined-set-2016/1fzm/1fzm_pocket.pdb
REMARK  330 active torsions:
REMARK  status: ('A' for Active; 'I' for Inactive)
REMARK    1  A    between atoms: _1  and  _3
REMARK    2  A    between atoms: _3  and  _4
REMARK    3  A    between atoms: _3  and  _6
REMARK    4  A    between atoms: _6  and  _7
REMARK    5  A    between atoms: _10  and  _12
REMARK    6  A    between atoms: _12  and  _13
REMARK    7  A    between atoms: _12  and  _15
REMARK    8  A    between atoms: _15  and  _16
REMARK    9  A    between atoms: _16  and  _17
REMARK   10  A    between atoms: _17  and  _18
REMARK   11  A    between atoms: _27  and  _29
REMARK   12  A    between atoms: _29  and  _30
REMARK   13  A    between atoms: _29  and  _32
REMARK   14  A    between atoms: _32  and  _33
REMARK   15  A    between atoms: _38  and  _39
REMARK   16  A    between atoms: _41  and  _43
REMARK   17  A    between atoms: _43  and  _44
REMARK   18  A    between atoms: _43  and  _46
REMARK   19  A    between atoms: _46  and  _47
REMARK   20  A    between atoms: _53  and  _55
REMARK   21  A    between atoms: _55  and  _56
REMARK   22  A    between atoms: _55  and  _58
REMARK   23  A    between atoms: _61  and  _63
REMARK   24  A    between atoms: _63  and  _64
REMARK   25  A    between atoms: _63  and  _66
REMARK   26  A    between atoms: _66  and  _67
REMARK   27  A    between atoms: _70  and  _72
REMARK   28  A    between atoms: _72  and  _73
REMARK   29  A    between atoms: _72  and  _75
REMARK   30  A    between atoms: _75  and  _76
REMARK   31  A    between atoms: _82  and  _84
REMARK   32  A    between atoms: _84  and  _85
REMARK   33  A    between atoms: _84  and  _87
REMARK   34  A    between atoms: _87  and  _88
REMARK   35  A    between atoms: _90  and  _92
REMARK   36  A    between atoms: _92  and  _93
REMARK   37  A    between atoms: _92  and  _95
REMARK   38  A    between atoms: _98  and  _100
REMARK   39  A    between atoms: _100  and  _101
REMARK   40  A    between atoms: _100  and  _103
REMARK   41  A    between atoms: _103  and  _104
REMARK   42  A    between atoms: _110  and  _112
REMARK   43  A    between atoms: _112  and  _113
REMARK   44  A    between atoms: _112  and  _115
REMARK   45  A    between atoms: _118  and  _120
REMARK   46  A    between atoms: _120  and  _121
REMARK   47  A    between atoms: _120  and  _123
REMARK   48  A    between atoms: _123  and  _124
REMARK   49  A    between atoms: _129  and  _130
REMARK   50  A    between atoms: _132  and  _134
REMARK   51  A    between atoms: _134  and  _135
REMARK   52  A    between atoms: _134  and  _137
REMARK   53  A    between atoms: _137  and  _138
REMARK   54  A    between atoms: _138  and  _139
REMARK   55  A    between atoms: _141  and  _143
REMARK   56  A    between atoms: _143  and  _144
REMARK   57  A    between atoms: _143  and  _146
REMARK   58  A    between atoms: _146  and  _147
REMARK   59  A    between atoms: _147  and  _148
REMARK   60  A    between atoms: _151  and  _153
REMARK   61  A    between atoms: _153  and  _154
REMARK   62  A    between atoms: _156  and  _158
REMARK   63  A    between atoms: _158  and  _159
REMARK   64  A    between atoms: _158  and  _161
REMARK   65  A    between atoms: _161  and  _162
REMARK   66  A    between atoms: _162  and  _163
REMARK   67  A    between atoms: _166  and  _168
REMARK   68  A    between atoms: _168  and  _169
REMARK   69  A    between atoms: _168  and  _171
REMARK   70  A    between atoms: _171  and  _172
REMARK   71  A    between atoms: _177  and  _178
REMARK   72  A    between atoms: _180  and  _182
REMARK   73  A    between atoms: _182  and  _183
REMARK   74  A    between atoms: _182  and  _185
REMARK   75  A    between atoms: _185  and  _186
REMARK   76  A    between atoms: _196  and  _198
REMARK   77  A    between atoms: _198  and  _199
REMARK   78  A    between atoms: _198  and  _201
REMARK   79  A    between atoms: _201  and  _202
REMARK   80  A    between atoms: _202  and  _203
REMARK   81  A    between atoms: _203  and  _204
REMARK   82  A    between atoms: _213  and  _215
REMARK   83  A    between atoms: _215  and  _216
REMARK   84  A    between atoms: _215  and  _218
REMARK   85  A    between atoms: _218  and  _219
REMARK   86  A    between atoms: _219  and  _220
REMARK   87  A    between atoms: _223  and  _225
REMARK   88  A    between atoms: _225  and  _226
REMARK   89  A    between atoms: _225  and  _228
REMARK   90  A    between atoms: _228  and  _229
REMARK   91  A    between atoms: _229  and  _230
REMARK   92  A    between atoms: _235  and  _237
REMARK   93  A    between atoms: _237  and  _238
REMARK   94  A    between atoms: _237  and  _240
REMARK   95  A    between atoms: _240  and  _241
REMARK   96  A    between atoms: _241  and  _242
REMARK   97  A    between atoms: _242  and  _243
REMARK   98  A    between atoms: _243  and  _244
REMARK   99  A    between atoms: _248  and  _250
REMARK  100  A    between atoms: _250  and  _251
REMARK  101  A    between atoms: _254  and  _256
REMARK  102  A    between atoms: _256  and  _257
REMARK  103  A    between atoms: _259  and  _261
REMARK  104  A    between atoms: _261  and  _262
REMARK  105  A    between atoms: _261  and  _264
REMARK  106  A    between atoms: _264  and  _265
REMARK  107  A    between atoms: _270  and  _272
REMARK  108  A    between atoms: _272  and  _273
REMARK  109  A    between atoms: _272  and  _275
REMARK  110  A    between atoms: _275  and  _276
REMARK  111  A    between atoms: _276  and  _277
REMARK  112  A    between atoms: _280  and  _282
REMARK  113  A    between atoms: _282  and  _283
REMARK  114  A    between atoms: _282  and  _285
REMARK  115  A    between atoms: _285  and  _286
REMARK  116  A    between atoms: _288  and  _290
REMARK  117  A    between atoms: _290  and  _291
REMARK  118  A    between atoms: _290  and  _293
REMARK  119  A    between atoms: _293  and  _294
REMARK  120  A    between atoms: _300  and  _302
REMARK  121  A    between atoms: _302  and  _303
REMARK  122  A    between atoms: _302  and  _305
REMARK  123  A    between atoms: _308  and  _310
REMARK  124  A    between atoms: _310  and  _311
REMARK  125  A    between atoms: _310  and  _313
REMARK  126  A    between atoms: _313  and  _314
REMARK  127  A    between atoms: _317  and  _319
REMARK  128  A    between atoms: _319  and  _320
REMARK  129  A    between atoms: _319  and  _322
REMARK  130  A    between atoms: _322  and  _323
REMARK  131  A    between atoms: _326  and  _328
REMARK  132  A    between atoms: _328  and  _329
REMARK  133  A    between atoms: _328  and  _331
REMARK  134  A    between atoms: _331  and  _332
REMARK  135  A    between atoms: _335  and  _337
REMARK  136  A    between atoms: _337  and  _338
REMARK  137  A    between atoms: _337  and  _340
REMARK  138  A    between atoms: _340  and  _341
REMARK  139  A    between atoms: _344  and  _346
REMARK  140  A    between atoms: _346  and  _347
REMARK  141  A    between atoms: _346  and  _349
REMARK  142  A    between atoms: _349  and  _350
REMARK  143  A    between atoms: _355  and  _356
REMARK  144  A    between atoms: _358  and  _360
REMARK  145  A    between atoms: _360  and  _361
REMARK  146  A    between atoms: _360  and  _363
REMARK  147  A    between atoms: _363  and  _364
REMARK  148  A    between atoms: _369  and  _370
REMARK  149  A    between atoms: _372  and  _374
REMARK  150  A    between atoms: _374  and  _375
REMARK  151  A    between atoms: _374  and  _377
REMARK  152  A    between atoms: _377  and  _378
REMARK  153  A    between atoms: _381  and  _383
REMARK  154  A    between atoms: _383  and  _384
REMARK  155  A    between atoms: _383  and  _386
REMARK  156  A    between atoms: _386  and  _387
REMARK  157  A    between atoms: _387  and  _388
REMARK  158  A    between atoms: _393  and  _395
REMARK  159  A    between atoms: _395  and  _396
REMARK  160  A    between atoms: _395  and  _398
REMARK  161  A    between atoms: _401  and  _403
REMARK  162  A    between atoms: _403  and  _404
REMARK  163  A    between atoms: _403  and  _406
REMARK  164  A    between atoms: _406  and  _407
REMARK  165  A    between atoms: _410  and  _412
REMARK  166  A    between atoms: _412  and  _413
REMARK  167  A    between atoms: _412  and  _415
REMARK  168  A    between atoms: _415  and  _416
REMARK  169  A    between atoms: _418  and  _420
REMARK  170  A    between atoms: _420  and  _421
REMARK  171  A    between atoms: _423  and  _425
REMARK  172  A    between atoms: _425  and  _426
REMARK  173  A    between atoms: _425  and  _428
REMARK  174  A    between atoms: _428  and  _429
REMARK  175  A    between atoms: _434  and  _435
REMARK  176  A    between atoms: _437  and  _439
REMARK  177  A    between atoms: _439  and  _440
REMARK  178  A    between atoms: _439  and  _442
REMARK  179  A    between atoms: _442  and  _443
REMARK  180  A    between atoms: _443  and  _444
REMARK  181  A    between atoms: _449  and  _451
REMARK  182  A    between atoms: _451  and  _452
REMARK  183  A    between atoms: _451  and  _454
REMARK  184  A    between atoms: _454  and  _455
REMARK  185  A    between atoms: _455  and  _456
REMARK  186  A    between atoms: _461  and  _463
REMARK  187  A    between atoms: _463  and  _464
REMARK  188  A    between atoms: _463  and  _466
REMARK  189  A    between atoms: _466  and  _467
REMARK  190  A    between atoms: _472  and  _473
REMARK  191  A    between atoms: _475  and  _477
REMARK  192  A    between atoms: _477  and  _478
REMARK  193  A    between atoms: _481  and  _483
REMARK  194  A    between atoms: _483  and  _484
REMARK  195  A    between atoms: _483  and  _486
REMARK  196  A    between atoms: _486  and  _487
REMARK  197  A    between atoms: _492  and  _493
REMARK  198  A    between atoms: _495  and  _497
REMARK  199  A    between atoms: _497  and  _498
REMARK  200  A    between atoms: _497  and  _500
REMARK  201  A    between atoms: _500  and  _501
REMARK  202  A    between atoms: _506  and  _507
REMARK  203  A    between atoms: _509  and  _511
REMARK  204  A    between atoms: _511  and  _512
REMARK  205  A    between atoms: _511  and  _514
REMARK  206  A    between atoms: _514  and  _515
REMARK  207  A    between atoms: _518  and  _520
REMARK  208  A    between atoms: _520  and  _521
REMARK  209  A    between atoms: _520  and  _523
REMARK  210  A    between atoms: _523  and  _524
REMARK  211  A    between atoms: _534  and  _536
REMARK  212  A    between atoms: _536  and  _537
REMARK  213  A    between atoms: _540  and  _542
REMARK  214  A    between atoms: _542  and  _543
REMARK  215  A    between atoms: _546  and  _548
REMARK  216  A    between atoms: _548  and  _549
REMARK  217  A    between atoms: _548  and  _551
REMARK  218  A    between atoms: _551  and  _552
REMARK  219  A    between atoms: _555  and  _557
REMARK  220  A    between atoms: _557  and  _558
REMARK  221  A    between atoms: _557  and  _560
REMARK  222  A    between atoms: _560  and  _561
REMARK  223  A    between atoms: _564  and  _566
REMARK  224  A    between atoms: _566  and  _567
REMARK  225  A    between atoms: _566  and  _569
REMARK  226  A    between atoms: _569  and  _570
REMARK  227  A    between atoms: _573  and  _575
REMARK  228  A    between atoms: _575  and  _576
REMARK  229  A    between atoms: _575  and  _578
REMARK  230  A    between atoms: _578  and  _579
REMARK  231  A    between atoms: _579  and  _580
REMARK  232  A    between atoms: _580  and  _581
REMARK  233  A    between atoms: _581  and  _582
REMARK  234  A    between atoms: _586  and  _588
REMARK  235  A    between atoms: _588  and  _589
REMARK  236  A    between atoms: _588  and  _591
REMARK  237  A    between atoms: _591  and  _592
REMARK  238  A    between atoms: _597  and  _599
REMARK  239  A    between atoms: _599  and  _600
REMARK  240  A    between atoms: _599  and  _602
REMARK  241  A    between atoms: _602  and  _603
REMARK  242  A    between atoms: _603  and  _604
REMARK  243  A    between atoms: _604  and  _605
REMARK  244  A    between atoms: _605  and  _606
REMARK  245  A    between atoms: _610  and  _612
REMARK  246  A    between atoms: _612  and  _613
REMARK  247  A    between atoms: _612  and  _615
REMARK  248  A    between atoms: _615  and  _616
REMARK  249  A    between atoms: _626  and  _628
REMARK  250  A    between atoms: _628  and  _629
REMARK  251  A    between atoms: _628  and  _631
REMARK  252  A    between atoms: _631  and  _632
REMARK  253  A    between atoms: _632  and  _633
REMARK  254  A    between atoms: _636  and  _638
REMARK  255  A    between atoms: _638  and  _639
REMARK  256  A    between atoms: _642  and  _644
REMARK  257  A    between atoms: _644  and  _645
REMARK  258  A    between atoms: _647  and  _649
REMARK  259  A    between atoms: _649  and  _650
REMARK  260  A    between atoms: _649  and  _652
REMARK  261  A    between atoms: _652  and  _653
REMARK  262  A    between atoms: _653  and  _654
REMARK  263  A    between atoms: _657  and  _659
REMARK  264  A    between atoms: _659  and  _660
REMARK  265  A    between atoms: _663  and  _665
REMARK  266  A    between atoms: _665  and  _666
REMARK  267  A    between atoms: _665  and  _668
REMARK  268  A    between atoms: _668  and  _669
REMARK  269  A    between atoms: _669  and  _670
REMARK  270  A    between atoms: _673  and  _675
REMARK  271  A    between atoms: _675  and  _676
REMARK  272  A    between atoms: _675  and  _678
REMARK  273  A    between atoms: _678  and  _679
REMARK  274  A    between atoms: _679  and  _680
REMARK  275  A    between atoms: _680  and  _681
REMARK  276  A    between atoms: _690  and  _692
REMARK  277  A    between atoms: _692  and  _693
REMARK  278  A    between atoms: _692  and  _695
REMARK  279  A    between atoms: _695  and  _696
REMARK  280  A    between atoms: _699  and  _701
REMARK  281  A    between atoms: _701  and  _702
REMARK  282  A    between atoms: _701  and  _704
REMARK  283  A    between atoms: _704  and  _705
REMARK  284  A    between atoms: _705  and  _706
REMARK  285  A    between atoms: _706  and  _707
REMARK  286  A    between atoms: _716  and  _718
REMARK  287  A    between atoms: _718  and  _719
REMARK  288  A    between atoms: _722  and  _724
REMARK  289  A    between atoms: _724  and  _725
REMARK  290  A    between atoms: _724  and  _727
REMARK  291  A    between atoms: _727  and  _728
REMARK  292  A    between atoms: _733  and  _734
REMARK  293  A    between atoms: _736  and  _738
REMARK  294  A    between atoms: _738  and  _739
REMARK  295  A    between atoms: _738  and  _741
REMARK  296  A    between atoms: _741  and  _742
REMARK  297  A    between atoms: _745  and  _747
REMARK  298  A    between atoms: _747  and  _748
REMARK  299  A    between atoms: _747  and  _750
REMARK  300  A    between atoms: _750  and  _751
REMARK  301  A    between atoms: _754  and  _756
REMARK  302  A    between atoms: _756  and  _757
REMARK  303  A    between atoms: _756  and  _759
REMARK  304  A    between atoms: _761  and  _763
REMARK  305  A    between atoms: _763  and  _764
REMARK  306  A    between atoms: _763  and  _766
REMARK  307  A    between atoms: _769  and  _771
REMARK  308  A    between atoms: _771  and  _772
REMARK  309  A    between atoms: _771  and  _774
REMARK  310  A    between atoms: _774  and  _775
REMARK  311  A    between atoms: _775  and  _776
REMARK  312  A    between atoms: _779  and  _781
REMARK  313  A    between atoms: _781  and  _782
REMARK  314  A    between atoms: _781  and  _784
REMARK  315  A    between atoms: _784  and  _785
REMARK  316  A    between atoms: _795  and  _797
REMARK  317  A    between atoms: _797  and  _798
REMARK  318  A    between atoms: _797  and  _800
REMARK  319  A    between atoms: _800  and  _801
REMARK  320  A    between atoms: _804  and  _806
REMARK  321  A    between atoms: _806  and  _807
REMARK  322  A    between atoms: _806  and  _809
REMARK  323  A    between atoms: _809  and  _810
REMARK  324  A    between atoms: _810  and  _811
REMARK  325  A    between atoms: _811  and  _812
REMARK  326  A    between atoms: _821  and  _823
REMARK  327  A    between atoms: _823  and  _824
REMARK  328  A    between atoms: _823  and  _826
REMARK  329  A    between atoms: _826  and  _827
REMARK  330  A    between atoms: _832  and  _833
REMARK                            x       y       z     vdW  Elec       q    Type
REMARK                         _______ _______ _______ _____ _____    ______ ____
ROOT
ATOM      1  CA  GLN A   3      47.886  50.198 -11.529  0.00  0.00    +0.149 C 
ENDROOT
BRANCH   1   3
ATOM      2  C   GLN A   2      49.234  52.029 -10.701  0.00  0.00    +0.241 C 
ATOM      3  N   GLN A   3      48.488  50.963 -10.446  0.00  0.00    -0.297 N 
ATOM      4  H   GLN A   3      48.331  50.670  -9.461  0.00  0.00    +0.150 HD
ATOM      5  O   GLN A   2      49.431  52.439 -11.845  0.00  0.00    -0.273 OA
BRANCH   2   6
ATOM      6  CA  GLN A   2      49.846  52.728  -9.497  0.00  0.00    +0.149 C 
BRANCH   6   9
ATOM      7  C   TYR A   1      52.136  52.665  -8.602  0.00  0.00    +0.239 C 
ATOM      8  O   TYR A   1      51.804  52.997  -7.465  0.00  0.00    -0.274 OA
ATOM      9  N   GLN A   2      51.291  52.534  -9.615  0.00  0.00    -0.297 N 
ATOM     10  H   GLN A   2      51.677  52.279 -10.546  0.00  0.00    +0.150 HD
BRANCH   7  11
ATOM     11  CA  TYR A   1      53.595  52.386  -8.949  0.00  0.00    +0.149 C 
BRANCH  11  12
ATOM     12  N   TYR A   1      54.548  52.960  -8.015  0.00  0.00    -0.238 NA
ATOM     13  H   TYR A   1      54.244  53.236  -7.060  0.00  0.00    +0.142 HD
ENDBRANCH  11  12
BRANCH  11  14
ATOM     14  CB  TYR A   1      53.829  50.865  -9.052  0.00  0.00    +0.053 C 
BRANCH  14  15
ATOM     15  CG  TYR A   1      54.123  50.180  -7.730  0.00  0.00    -0.020 A 
ATOM     16  CD2 TYR A   1      53.110  49.914  -6.808  0.00  0.00    -0.001 A 
ATOM     17  CE2 TYR A   1      53.388  49.291  -5.586  0.00  0.00    +0.036 A 
ATOM     18  CZ  TYR A   1      54.704  48.930  -5.285  0.00  0.00    +0.134 A 
ATOM     19  CE1 TYR A   1      55.719  49.187  -6.185  0.00  0.00    +0.036 A 
ATOM     20  CD1 TYR A   1      55.429  49.805  -7.396  0.00  0.00    -0.001 A 
BRANCH  18  21
ATOM     21  OH  TYR A   1      55.012  48.312  -4.092  0.00  0.00    -0.506 OA
ATOM     22  HH  TYR A   1      55.414  47.426  -4.275  0.00  0.00    +0.292 HD
ENDBRANCH  18  21
ENDBRANCH  14  15
ENDBRANCH  11  14
ENDBRANCH   7  11
ENDBRANCH   6   9
BRANCH   6  23
ATOM     23  CB  GLN A   2      49.486  54.216  -9.504  0.00  0.00    +0.039 C 
BRANCH  23  24
ATOM     24  CG  GLN A   2      47.971  54.464  -9.524  0.00  0.00    +0.087 C 
BRANCH  24  25
ATOM     25  CD  GLN A   2      47.541  55.541  -8.554  0.00  0.00    +0.219 C 
ATOM     26  NE2 GLN A   2      47.951  55.401  -7.306  0.00  0.00    -0.329 N 
ATOM     27 HE21 GLN A   2      47.687  56.107  -6.590  0.00  0.00    +0.145 HD
ATOM     28 HE22 GLN A   2      48.538  54.584  -7.040  0.00  0.00    +0.145 HD
ATOM     29  OE1 GLN A   2      46.846  56.488  -8.920  0.00  0.00    -0.275 OA
ENDBRANCH  24  25
ENDBRANCH  23  24
ENDBRANCH   6  23
ENDBRANCH   2   6
ENDBRANCH   1   3
BRANCH   1  30
ATOM     30  C   GLN A   3      46.420  49.901 -11.213  0.00  0.00    +0.241 C 
ATOM     31  O   GLN A   3      46.086  49.618 -10.067  0.00  0.00    -0.273 OA
ATOM     32  N   TYR A   4      45.577  49.984 -12.243  0.00  0.00    -0.297 N 
ATOM     33  H   TYR A   4      45.968  50.236 -13.173  0.00  0.00    +0.150 HD
BRANCH  32  34
ATOM     34  CA  TYR A   4      44.130  49.741 -12.146  0.00  0.00    +0.153 C 
BRANCH  34  35
ATOM     35  C   TYR A   4      43.696  48.512 -12.941  0.00  0.00    +0.241 C 
ATOM     36  N   ALA A   5      42.560  47.943 -12.538  0.00  0.00    -0.297 N 
ATOM     37  H   ALA A   5      42.080  48.327 -11.699  0.00  0.00    +0.150 HD
ATOM     38  O   TYR A   4      44.336  48.130 -13.924  0.00  0.00    -0.273 OA
BRANCH  36  39
ATOM     39  CA  ALA A   5      41.964  46.805 -13.224  0.00  0.00    +0.149 C 
ATOM     40  CB  ALA A   5      42.359  45.494 -12.548  0.00  0.00    +0.031 C 
BRANCH  39  41
ATOM     41  C   ALA A   5      40.452  46.979 -13.149  0.00  0.00    +0.241 C 
ATOM     42  O   ALA A   5      39.943  47.554 -12.188  0.00  0.00    -0.273 OA
ATOM     43  N   TYR A   6      39.751  46.497 -14.168  0.00  0.00    -0.298 N 
ATOM     44  H   TYR A   6      40.259  46.071 -14.969  0.00  0.00    +0.150 HD
BRANCH  43  45
ATOM     45  CA  TYR A   6      38.286  46.545 -14.203  0.00  0.00    +0.141 C 
BRANCH  45  46
ATOM     46  C   TYR A   6      37.853  45.102 -14.451  0.00  0.00    +0.227 C 
ATOM     47  O   TYR A   6      38.316  44.469 -15.399  0.00  0.00    -0.286 OA
ENDBRANCH  45  46
BRANCH  45  48
ATOM     48  CB  TYR A   6      37.790  47.459 -15.326  0.00  0.00    +0.054 C 
BRANCH  48  49
ATOM     49  CG  TYR A   6      36.272  47.579 -15.394  0.00  0.00    -0.020 A 
ATOM     50  CD2 TYR A   6      35.538  47.978 -14.282  0.00  0.00    -0.001 A 
ATOM     51  CE2 TYR A   6      34.138  48.109 -14.338  0.00  0.00    +0.036 A 
ATOM     52  CZ  TYR A   6      33.478  47.839 -15.519  0.00  0.00    +0.134 A 
ATOM     53  CE1 TYR A   6      34.185  47.439 -16.648  0.00  0.00    +0.036 A 
ATOM     54  CD1 TYR A   6      35.584  47.309 -16.578  0.00  0.00    -0.001 A 
BRANCH  52  55
ATOM     55  OH  TYR A   6      32.103  47.963 -15.569  0.00  0.00    -0.506 OA
ATOM     56  HH  TYR A   6      31.767  48.254 -14.685  0.00  0.00    +0.292 HD
ENDBRANCH  52  55
ENDBRANCH  48  49
ENDBRANCH  45  48
ENDBRANCH  43  45
ENDBRANCH  39  41
ENDBRANCH  36  39
ENDBRANCH  34  35
BRANCH  34  57
ATOM     57  CB  TYR A   4      43.333  50.905 -12.742  0.00  0.00    +0.055 C 
BRANCH  57  58
ATOM     58  CG  TYR A   4      43.187  52.150 -11.908  0.00  0.00    -0.020 A 
ATOM     59  CD2 TYR A   4      41.920  52.592 -11.524  0.00  0.00    -0.001 A 
ATOM     60  CE2 TYR A   4      41.755  53.772 -10.800  0.00  0.00    +0.036 A 
ATOM     61  CZ  TYR A   4      42.867  54.521 -10.451  0.00  0.00    +0.134 A 
ATOM     62  CE1 TYR A   4      44.139  54.100 -10.816  0.00  0.00    +0.036 A 
ATOM     63  CD1 TYR A   4      44.295  52.918 -11.544  0.00  0.00    -0.001 A 
BRANCH  61  64
ATOM     64  OH  TYR A   4      42.683  55.694  -9.747  0.00  0.00    -0.506 OA
ATOM     65  HH  TYR A   4      43.562  56.114  -9.572  0.00  0.00    +0.292 HD
ENDBRANCH  61  64
ENDBRANCH  57  58
ENDBRANCH  34  57
ENDBRANCH  32  34
ENDBRANCH   1  30
BRANCH   1  66
ATOM     66  CB  GLN A   3      48.670  48.893 -11.709  0.00  0.00    +0.039 C 
BRANCH  66  67
ATOM     67  CG  GLN A   3      50.164  49.141 -11.955  0.00  0.00    +0.087 C 
BRANCH  67  68
ATOM     68  CD  GLN A   3      51.020  47.891 -11.850  0.00  0.00    +0.219 C 
ATOM     69  NE2 GLN A   3      50.400  46.766 -11.498  0.00  0.00    -0.329 N 
ATOM     70 HE21 GLN A   3      49.376  46.772 -11.316  0.00  0.00    +0.145 HD
ATOM     71 HE22 GLN A   3      50.940  45.882 -11.405  0.00  0.00    +0.145 HD
ATOM     72  OE1 GLN A   3      52.234  47.942 -12.078  0.00  0.00    -0.275 OA
ENDBRANCH  67  68
ENDBRANCH  66  67
ENDBRANCH   1  66
TORSDOF 27
REMARK  Name = ../refined-set-2016/1fzm/1fzm_pocket.pdb
REMARK  330 active torsions:
REMARK  status: ('A' for Active; 'I' for Inactive)
REMARK    1  A    between atoms: _1  and  _3
REMARK    2  A    between atoms: _3  and  _4
REMARK    3  A    between atoms: _3  and  _6
REMARK    4  A    between atoms: _6  and  _7
REMARK    5  A    between atoms: _10  and  _12
REMARK    6  A    between atoms: _12  and  _13
REMARK    7  A    between atoms: _12  and  _15
REMARK    8  A    between atoms: _15  and  _16
REMARK    9  A    between atoms: _16  and  _17
REMARK   10  A    between atoms: _17  and  _18
REMARK   11  A    between atoms: _27  and  _29
REMARK   12  A    between atoms: _29  and  _30
REMARK   13  A    between atoms: _29  and  _32
REMARK   14  A    between atoms: _32  and  _33
REMARK   15  A    between atoms: _38  and  _39
REMARK   16  A    between atoms: _41  and  _43
REMARK   17  A    between atoms: _43  and  _44
REMARK   18  A    between atoms: _43  and  _46
REMARK   19  A    between atoms: _46  and  _47
REMARK   20  A    between atoms: _53  and  _55
REMARK   21  A    between atoms: _55  and  _56
REMARK   22  A    between atoms: _55  and  _58
REMARK   23  A    between atoms: _61  and  _63
REMARK   24  A    between atoms: _63  and  _64
REMARK   25  A    between atoms: _63  and  _66
REMARK   26  A    between atoms: _66  and  _67
REMARK   27  A    between atoms: _70  and  _72
REMARK   28  A    between atoms: _72  and  _73
REMARK   29  A    between atoms: _72  and  _75
REMARK   30  A    between atoms: _75  and  _76
REMARK   31  A    between atoms: _82  and  _84
REMARK   32  A    between atoms: _84  and  _85
REMARK   33  A    between atoms: _84  and  _87
REMARK   34  A    between atoms: _87  and  _88
REMARK   35  A    between atoms: _90  and  _92
REMARK   36  A    between atoms: _92  and  _93
REMARK   37  A    between atoms: _92  and  _95
REMARK   38  A    between atoms: _98  and  _100
REMARK   39  A    between atoms: _100  and  _101
REMARK   40  A    between atoms: _100  and  _103
REMARK   41  A    between atoms: _103  and  _104
REMARK   42  A    between atoms: _110  and  _112
REMARK   43  A    between atoms: _112  and  _113
REMARK   44  A    between atoms: _112  and  _115
REMARK   45  A    between atoms: _118  and  _120
REMARK   46  A    between atoms: _120  and  _121
REMARK   47  A    between atoms: _120  and  _123
REMARK   48  A    between atoms: _123  and  _124
REMARK   49  A    between atoms: _129  and  _130
REMARK   50  A    between atoms: _132  and  _134
REMARK   51  A    between atoms: _134  and  _135
REMARK   52  A    between atoms: _134  and  _137
REMARK   53  A    between atoms: _137  and  _138
REMARK   54  A    between atoms: _138  and  _139
REMARK   55  A    between atoms: _141  and  _143
REMARK   56  A    between atoms: _143  and  _144
REMARK   57  A    between atoms: _143  and  _146
REMARK   58  A    between atoms: _146  and  _147
REMARK   59  A    between atoms: _147  and  _148
REMARK   60  A    between atoms: _151  and  _153
REMARK   61  A    between atoms: _153  and  _154
REMARK   62  A    between atoms: _156  and  _158
REMARK   63  A    between atoms: _158  and  _159
REMARK   64  A    between atoms: _158  and  _161
REMARK   65  A    between atoms: _161  and  _162
REMARK   66  A    between atoms: _162  and  _163
REMARK   67  A    between atoms: _166  and  _168
REMARK   68  A    between atoms: _168  and  _169
REMARK   69  A    between atoms: _168  and  _171
REMARK   70  A    between atoms: _171  and  _172
REMARK   71  A    between atoms: _177  and  _178
REMARK   72  A    between atoms: _180  and  _182
REMARK   73  A    between atoms: _182  and  _183
REMARK   74  A    between atoms: _182  and  _185
REMARK   75  A    between atoms: _185  and  _186
REMARK   76  A    between atoms: _196  and  _198
REMARK   77  A    between atoms: _198  and  _199
REMARK   78  A    between atoms: _198  and  _201
REMARK   79  A    between atoms: _201  and  _202
REMARK   80  A    between atoms: _202  and  _203
REMARK   81  A    between atoms: _203  and  _204
REMARK   82  A    between atoms: _213  and  _215
REMARK   83  A    between atoms: _215  and  _216
REMARK   84  A    between atoms: _215  and  _218
REMARK   85  A    between atoms: _218  and  _219
REMARK   86  A    between atoms: _219  and  _220
REMARK   87  A    between atoms: _223  and  _225
REMARK   88  A    between atoms: _225  and  _226
REMARK   89  A    between atoms: _225  and  _228
REMARK   90  A    between atoms: _228  and  _229
REMARK   91  A    between atoms: _229  and  _230
REMARK   92  A    between atoms: _235  and  _237
REMARK   93  A    between atoms: _237  and  _238
REMARK   94  A    between atoms: _237  and  _240
REMARK   95  A    between atoms: _240  and  _241
REMARK   96  A    between atoms: _241  and  _242
REMARK   97  A    between atoms: _242  and  _243
REMARK   98  A    between atoms: _243  and  _244
REMARK   99  A    between atoms: _248  and  _250
REMARK  100  A    between atoms: _250  and  _251
REMARK  101  A    between atoms: _254  and  _256
REMARK  102  A    between atoms: _256  and  _257
REMARK  103  A    between atoms: _259  and  _261
REMARK  104  A    between atoms: _261  and  _262
REMARK  105  A    between atoms: _261  and  _264
REMARK  106  A    between atoms: _264  and  _265
REMARK  107  A    between atoms: _270  and  _272
REMARK  108  A    between atoms: _272  and  _273
REMARK  109  A    between atoms: _272  and  _275
REMARK  110  A    between atoms: _275  and  _276
REMARK  111  A    between atoms: _276  and  _277
REMARK  112  A    between atoms: _280  and  _282
REMARK  113  A    between atoms: _282  and  _283
REMARK  114  A    between atoms: _282  and  _285
REMARK  115  A    between atoms: _285  and  _286
REMARK  116  A    between atoms: _288  and  _290
REMARK  117  A    between atoms: _290  and  _291
REMARK  118  A    between atoms: _290  and  _293
REMARK  119  A    between atoms: _293  and  _294
REMARK  120  A    between atoms: _300  and  _302
REMARK  121  A    between atoms: _302  and  _303
REMARK  122  A    between atoms: _302  and  _305
REMARK  123  A    between atoms: _308  and  _310
REMARK  124  A    between atoms: _310  and  _311
REMARK  125  A    between atoms: _310  and  _313
REMARK  126  A    between atoms: _313  and  _314
REMARK  127  A    between atoms: _317  and  _319
REMARK  128  A    between atoms: _319  and  _320
REMARK  129  A    between atoms: _319  and  _322
REMARK  130  A    between atoms: _322  and  _323
REMARK  131  A    between atoms: _326  and  _328
REMARK  132  A    between atoms: _328  and  _329
REMARK  133  A    between atoms: _328  and  _331
REMARK  134  A    between atoms: _331  and  _332
REMARK  135  A    between atoms: _335  and  _337
REMARK  136  A    between atoms: _337  and  _338
REMARK  137  A    between atoms: _337  and  _340
REMARK  138  A    between atoms: _340  and  _341
REMARK  139  A    between atoms: _344  and  _346
REMARK  140  A    between atoms: _346  and  _347
REMARK  141  A    between atoms: _346  and  _349
REMARK  142  A    between atoms: _349  and  _350
REMARK  143  A    between atoms: _355  and  _356
REMARK  144  A    between atoms: _358  and  _360
REMARK  145  A    between atoms: _360  and  _361
REMARK  146  A    between atoms: _360  and  _363
REMARK  147  A    between atoms: _363  and  _364
REMARK  148  A    between atoms: _369  and  _370
REMARK  149  A    between atoms: _372  and  _374
REMARK  150  A    between atoms: _374  and  _375
REMARK  151  A    between atoms: _374  and  _377
REMARK  152  A    between atoms: _377  and  _378
REMARK  153  A    between atoms: _381  and  _383
REMARK  154  A    between atoms: _383  and  _384
REMARK  155  A    between atoms: _383  and  _386
REMARK  156  A    between atoms: _386  and  _387
REMARK  157  A    between atoms: _387  and  _388
REMARK  158  A    between atoms: _393  and  _395
REMARK  159  A    between atoms: _395  and  _396
REMARK  160  A    between atoms: _395  and  _398
REMARK  161  A    between atoms: _401  and  _403
REMARK  162  A    between atoms: _403  and  _404
REMARK  163  A    between atoms: _403  and  _406
REMARK  164  A    between atoms: _406  and  _407
REMARK  165  A    between atoms: _410  and  _412
REMARK  166  A    between atoms: _412  and  _413
REMARK  167  A    between atoms: _412  and  _415
REMARK  168  A    between atoms: _415  and  _416
REMARK  169  A    between atoms: _418  and  _420
REMARK  170  A    between atoms: _420  and  _421
REMARK  171  A    between atoms: _423  and  _425
REMARK  172  A    between atoms: _425  and  _426
REMARK  173  A    between atoms: _425  and  _428
REMARK  174  A    between atoms: _428  and  _429
REMARK  175  A    between atoms: _434  and  _435
REMARK  176  A    between atoms: _437  and  _439
REMARK  177  A    between atoms: _439  and  _440
REMARK  178  A    between atoms: _439  and  _442
REMARK  179  A    between atoms: _442  and  _443
REMARK  180  A    between atoms: _443  and  _444
REMARK  181  A    between atoms: _449  and  _451
REMARK  182  A    between atoms: _451  and  _452
REMARK  183  A    between atoms: _451  and  _454
REMARK  184  A    between atoms: _454  and  _455
REMARK  185  A    between atoms: _455  and  _456
REMARK  186  A    between atoms: _461  and  _463
REMARK  187  A    between atoms: _463  and  _464
REMARK  188  A    between atoms: _463  and  _466
REMARK  189  A    between atoms: _466  and  _467
REMARK  190  A    between atoms: _472  and  _473
REMARK  191  A    between atoms: _475  and  _477
REMARK  192  A    between atoms: _477  and  _478
REMARK  193  A    between atoms: _481  and  _483
REMARK  194  A    between atoms: _483  and  _484
REMARK  195  A    between atoms: _483  and  _486
REMARK  196  A    between atoms: _486  and  _487
REMARK  197  A    between atoms: _492  and  _493
REMARK  198  A    between atoms: _495  and  _497
REMARK  199  A    between atoms: _497  and  _498
REMARK  200  A    between atoms: _497  and  _500
REMARK  201  A    between atoms: _500  and  _501
REMARK  202  A    between atoms: _506  and  _507
REMARK  203  A    between atoms: _509  and  _511
REMARK  204  A    between atoms: _511  and  _512
REMARK  205  A    between atoms: _511  and  _514
REMARK  206  A    between atoms: _514  and  _515
REMARK  207  A    between atoms: _518  and  _520
REMARK  208  A    between atoms: _520  and  _521
REMARK  209  A    between atoms: _520  and  _523
REMARK  210  A    between atoms: _523  and  _524
REMARK  211  A    between atoms: _534  and  _536
REMARK  212  A    between atoms: _536  and  _537
REMARK  213  A    between atoms: _540  and  _542
REMARK  214  A    between atoms: _542  and  _543
REMARK  215  A    between atoms: _546  and  _548
REMARK  216  A    between atoms: _548  and  _549
REMARK  217  A    between atoms: _548  and  _551
REMARK  218  A    between atoms: _551  and  _552
REMARK  219  A    between atoms: _555  and  _557
REMARK  220  A    between atoms: _557  and  _558
REMARK  221  A    between atoms: _557  and  _560
REMARK  222  A    between atoms: _560  and  _561
REMARK  223  A    between atoms: _564  and  _566
REMARK  224  A    between atoms: _566  and  _567
REMARK  225  A    between atoms: _566  and  _569
REMARK  226  A    between atoms: _569  and  _570
REMARK  227  A    between atoms: _573  and  _575
REMARK  228  A    between atoms: _575  and  _576
REMARK  229  A    between atoms: _575  and  _578
REMARK  230  A    between atoms: _578  and  _579
REMARK  231  A    between atoms: _579  and  _580
REMARK  232  A    between atoms: _580  and  _581
REMARK  233  A    between atoms: _581  and  _582
REMARK  234  A    between atoms: _586  and  _588
REMARK  235  A    between atoms: _588  and  _589
REMARK  236  A    between atoms: _588  and  _591
REMARK  237  A    between atoms: _591  and  _592
REMARK  238  A    between atoms: _597  and  _599
REMARK  239  A    between atoms: _599  and  _600
REMARK  240  A    between atoms: _599  and  _602
REMARK  241  A    between atoms: _602  and  _603
REMARK  242  A    between atoms: _603  and  _604
REMARK  243  A    between atoms: _604  and  _605
REMARK  244  A    between atoms: _605  and  _606
REMARK  245  A    between atoms: _610  and  _612
REMARK  246  A    between atoms: _612  and  _613
REMARK  247  A    between atoms: _612  and  _615
REMARK  248  A    between atoms: _615  and  _616
REMARK  249  A    between atoms: _626  and  _628
REMARK  250  A    between atoms: _628  and  _629
REMARK  251  A    between atoms: _628  and  _631
REMARK  252  A    between atoms: _631  and  _632
REMARK  253  A    between atoms: _632  and  _633
REMARK  254  A    between atoms: _636  and  _638
REMARK  255  A    between atoms: _638  and  _639
REMARK  256  A    between atoms: _642  and  _644
REMARK  257  A    between atoms: _644  and  _645
REMARK  258  A    between atoms: _647  and  _649
REMARK  259  A    between atoms: _649  and  _650
REMARK  260  A    between atoms: _649  and  _652
REMARK  261  A    between atoms: _652  and  _653
REMARK  262  A    between atoms: _653  and  _654
REMARK  263  A    between atoms: _657  and  _659
REMARK  264  A    between atoms: _659  and  _660
REMARK  265  A    between atoms: _663  and  _665
REMARK  266  A    between atoms: _665  and  _666
REMARK  267  A    between atoms: _665  and  _668
REMARK  268  A    between atoms: _668  and  _669
REMARK  269  A    between atoms: _669  and  _670
REMARK  270  A    between atoms: _673  and  _675
REMARK  271  A    between atoms: _675  and  _676
REMARK  272  A    between atoms: _675  and  _678
REMARK  273  A    between atoms: _678  and  _679
REMARK  274  A    between atoms: _679  and  _680
REMARK  275  A    between atoms: _680  and  _681
REMARK  276  A    between atoms: _690  and  _692
REMARK  277  A    between atoms: _692  and  _693
REMARK  278  A    between atoms: _692  and  _695
REMARK  279  A    between atoms: _695  and  _696
REMARK  280  A    between atoms: _699  and  _701
REMARK  281  A    between atoms: _701  and  _702
REMARK  282  A    between atoms: _701  and  _704
REMARK  283  A    between atoms: _704  and  _705
REMARK  284  A    between atoms: _705  and  _706
REMARK  285  A    between atoms: _706  and  _707
REMARK  286  A    between atoms: _716  and  _718
REMARK  287  A    between atoms: _718  and  _719
REMARK  288  A    between atoms: _722  and  _724
REMARK  289  A    between atoms: _724  and  _725
REMARK  290  A    between atoms: _724  and  _727
REMARK  291  A    between atoms: _727  and  _728
REMARK  292  A    between atoms: _733  and  _734
REMARK  293  A    between atoms: _736  and  _738
REMARK  294  A    between atoms: _738  and  _739
REMARK  295  A    between atoms: _738  and  _741
REMARK  296  A    between atoms: _741  and  _742
REMARK  297  A    between atoms: _745  and  _747
REMARK  298  A    between atoms: _747  and  _748
REMARK  299  A    between atoms: _747  and  _750
REMARK  300  A    between atoms: _750  and  _751
REMARK  301  A    between atoms: _754  and  _756
REMARK  302  A    between atoms: _756  and  _757
REMARK  303  A    between atoms: _756  and  _759
REMARK  304  A    between atoms: _761  and  _763
REMARK  305  A    between atoms: _763  and  _764
REMARK  306  A    between atoms: _763  and  _766
REMARK  307  A    between atoms: _769  and  _771
REMARK  308  A    between atoms: _771  and  _772
REMARK  309  A    between atoms: _771  and  _774
REMARK  310  A    between atoms: _774  and  _775
REMARK  311  A    between atoms: _775  and  _776
REMARK  312  A    between atoms: _779  and  _781
REMARK  313  A    between atoms: _781  and  _782
REMARK  314  A    between atoms: _781  and  _784
REMARK  315  A    between atoms: _784  and  _785
REMARK  316  A    between atoms: _795  and  _797
REMARK  317  A    between atoms: _797  and  _798
REMARK  318  A    between atoms: _797  and  _800
REMARK  319  A    between atoms: _800  and  _801
REMARK  320  A    between atoms: _804  and  _806
REMARK  321  A    between atoms: _806  and  _807
REMARK  322  A    between atoms: _806  and  _809
REMARK  323  A    between atoms: _809  and  _810
REMARK  324  A    between atoms: _810  and  _811
REMARK  325  A    between atoms: _811  and  _812
REMARK  326  A    between atoms: _821  and  _823
REMARK  327  A    between atoms: _823  and  _824
REMARK  328  A    between atoms: _823  and  _826
REMARK  329  A    between atoms: _826  and  _827
REMARK  330  A    between atoms: _832  and  _833
REMARK                            x       y       z     vdW  Elec       q    Type
REMARK                         _______ _______ _______ _____ _____    ______ ____
ROOT
ATOM      1  CA  TYR A   1      42.912  48.774 -17.272  0.00  0.00    +0.149 C 
ENDROOT
BRANCH   1   2
ATOM      2  C   TYR A   1      43.936  49.858 -17.657  0.00  0.00    +0.239 C 
ATOM      3  N   ILE A   2      44.529  50.507 -16.660  0.00  0.00    -0.298 N 
ATOM      4  H   ILE A   2      44.268  50.284 -15.678  0.00  0.00    +0.150 HD
ATOM      5  O   TYR A   1      44.184  50.095 -18.841  0.00  0.00    -0.274 OA
BRANCH   3   6
ATOM      6  CA  ILE A   2      45.549  51.536 -16.921  0.00  0.00    +0.137 C 
BRANCH   6   7
ATOM      7  C   ILE A   2      46.627  51.502 -15.836  0.00  0.00    +0.227 C 
ATOM      8  O   ILE A   2      46.368  51.106 -14.703  0.00  0.00    -0.286 OA
ENDBRANCH   6   7
BRANCH   6   9
ATOM      9  CB  ILE A   2      44.920  52.966 -16.992  0.00  0.00    +0.026 C 
ATOM     10  CG2 ILE A   2      44.535  53.452 -15.605  0.00  0.00    +0.002 C 
BRANCH   9  11
ATOM     11  CG1 ILE A   2      45.919  53.946 -17.628  0.00  0.00    +0.002 C 
ATOM     12  CD1 ILE A   2      45.309  55.304 -17.988  0.00  0.00    +0.000 C 
ENDBRANCH   9  11
ENDBRANCH   6   9
ENDBRANCH   3   6
ENDBRANCH   1   2
BRANCH   1  13
ATOM     13  N   TYR A   1      43.614  47.628 -16.690  0.00  0.00    -0.238 NA
ATOM     14  H   TYR A   1      44.112  47.747 -15.785  0.00  0.00    +0.142 HD
ENDBRANCH   1  13
BRANCH   1  15
ATOM     15  CB  TYR A   1      41.888  49.328 -16.270  0.00  0.00    +0.053 C 
BRANCH  15  16
ATOM     16  CG  TYR A   1      41.027  50.447 -16.827  0.00  0.00    -0.020 A 
ATOM     17  CD2 TYR A   1      41.265  51.771 -16.466  0.00  0.00    -0.001 A 
ATOM     18  CE2 TYR A   1      40.516  52.809 -16.998  0.00  0.00    +0.036 A 
ATOM     19  CZ  TYR A   1      39.503  52.543 -17.905  0.00  0.00    +0.134 A 
ATOM     20  CE1 TYR A   1      39.229  51.235 -18.287  0.00  0.00    +0.036 A 
ATOM     21  CD1 TYR A   1      39.998  50.188 -17.744  0.00  0.00    -0.001 A 
BRANCH  19  22
ATOM     22  OH  TYR A   1      38.779  53.598 -18.424  0.00  0.00    -0.506 OA
ATOM     23  HH  TYR A   1      39.390  54.211 -18.904  0.00  0.00    +0.292 HD
ENDBRANCH  19  22
ENDBRANCH  15  16
ENDBRANCH   1  15
TORSDOF 9
REMARK  Name = ../refined-set-2016/1fzm/1fzm_pocket.pdb
REMARK  330 active torsions:
REMARK  status: ('A' for Active; 'I' for Inactive)
REMARK    1  A    between atoms: _1  and  _3
REMARK    2  A    between atoms: _3  and  _4
REMARK    3  A    between atoms: _3  and  _6
REMARK    4  A    between atoms: _6  and  _7
REMARK    5  A    between atoms: _10  and  _12
REMARK    6  A    between atoms: _12  and  _13
REMARK    7  A    between atoms: _12  and  _15
REMARK    8  A    between atoms: _15  and  _16
REMARK    9  A    between atoms: _16  and  _17
REMARK   10  A    between atoms: _17  and  _18
REMARK   11  A    between atoms: _27  and  _29
REMARK   12  A    between atoms: _29  and  _30
REMARK   13  A    between atoms: _29  and  _32
REMARK   14  A    between atoms: _32  and  _33
REMARK   15  A    between atoms: _38  and  _39
REMARK   16  A    between atoms: _41  and  _43
REMARK   17  A    between atoms: _43  and  _44
REMARK   18  A    between atoms: _43  and  _46
REMARK   19  A    between atoms: _46  and  _47
REMARK   20  A    between atoms: _53  and  _55
REMARK   21  A    between atoms: _55  and  _56
REMARK   22  A    between atoms: _55  and  _58
REMARK   23  A    between atoms: _61  and  _63
REMARK   24  A    between atoms: _63  and  _64
REMARK   25  A    between atoms: _63  and  _66
REMARK   26  A    between atoms: _66  and  _67
REMARK   27  A    between atoms: _70  and  _72
REMARK   28  A    between atoms: _72  and  _73
REMARK   29  A    between atoms: _72  and  _75
REMARK   30  A    between atoms: _75  and  _76
REMARK   31  A    between atoms: _82  and  _84
REMARK   32  A    between atoms: _84  and  _85
REMARK   33  A    between atoms: _84  and  _87
REMARK   34  A    between atoms: _87  and  _88
REMARK   35  A    between atoms: _90  and  _92
REMARK   36  A    between atoms: _92  and  _93
REMARK   37  A    between atoms: _92  and  _95
REMARK   38  A    between atoms: _98  and  _100
REMARK   39  A    between atoms: _100  and  _101
REMARK   40  A    between atoms: _100  and  _103
REMARK   41  A    between atoms: _103  and  _104
REMARK   42  A    between atoms: _110  and  _112
REMARK   43  A    between atoms: _112  and  _113
REMARK   44  A    between atoms: _112  and  _115
REMARK   45  A    between atoms: _118  and  _120
REMARK   46  A    between atoms: _120  and  _121
REMARK   47  A    between atoms: _120  and  _123
REMARK   48  A    between atoms: _123  and  _124
REMARK   49  A    between atoms: _129  and  _130
REMARK   50  A    between atoms: _132  and  _134
REMARK   51  A    between atoms: _134  and  _135
REMARK   52  A    between atoms: _134  and  _137
REMARK   53  A    between atoms: _137  and  _138
REMARK   54  A    between atoms: _138  and  _139
REMARK   55  A    between atoms: _141  and  _143
REMARK   56  A    between atoms: _143  and  _144
REMARK   57  A    between atoms: _143  and  _146
REMARK   58  A    between atoms: _146  and  _147
REMARK   59  A    between atoms: _147  and  _148
REMARK   60  A    between atoms: _151  and  _153
REMARK   61  A    between atoms: _153  and  _154
REMARK   62  A    between atoms: _156  and  _158
REMARK   63  A    between atoms: _158  and  _159
REMARK   64  A    between atoms: _158  and  _161
REMARK   65  A    between atoms: _161  and  _162
REMARK   66  A    between atoms: _162  and  _163
REMARK   67  A    between atoms: _166  and  _168
REMARK   68  A    between atoms: _168  and  _169
REMARK   69  A    between atoms: _168  and  _171
REMARK   70  A    between atoms: _171  and  _172
REMARK   71  A    between atoms: _177  and  _178
REMARK   72  A    between atoms: _180  and  _182
REMARK   73  A    between atoms: _182  and  _183
REMARK   74  A    between atoms: _182  and  _185
REMARK   75  A    between atoms: _185  and  _186
REMARK   76  A    between atoms: _196  and  _198
REMARK   77  A    between atoms: _198  and  _199
REMARK   78  A    between atoms: _198  and  _201
REMARK   79  A    between atoms: _201  and  _202
REMARK   80  A    between atoms: _202  and  _203
REMARK   81  A    between atoms: _203  and  _204
REMARK   82  A    between atoms: _213  and  _215
REMARK   83  A    between atoms: _215  and  _216
REMARK   84  A    between atoms: _215  and  _218
REMARK   85  A    between atoms: _218  and  _219
REMARK   86  A    between atoms: _219  and  _220
REMARK   87  A    between atoms: _223  and  _225
REMARK   88  A    between atoms: _225  and  _226
REMARK   89  A    between atoms: _225  and  _228
REMARK   90  A    between atoms: _228  and  _229
REMARK   91  A    between atoms: _229  and  _230
REMARK   92  A    between atoms: _235  and  _237
REMARK   93  A    between atoms: _237  and  _238
REMARK   94  A    between atoms: _237  and  _240
REMARK   95  A    between atoms: _240  and  _241
REMARK   96  A    between atoms: _241  and  _242
REMARK   97  A    between atoms: _242  and  _243
REMARK   98  A    between atoms: _243  and  _244
REMARK   99  A    between atoms: _248  and  _250
REMARK  100  A    between atoms: _250  and  _251
REMARK  101  A    between atoms: _254  and  _256
REMARK  102  A    between atoms: _256  and  _257
REMARK  103  A    between atoms: _259  and  _261
REMARK  104  A    between atoms: _261  and  _262
REMARK  105  A    between atoms: _261  and  _264
REMARK  106  A    between atoms: _264  and  _265
REMARK  107  A    between atoms: _270  and  _272
REMARK  108  A    between atoms: _272  and  _273
REMARK  109  A    between atoms: _272  and  _275
REMARK  110  A    between atoms: _275  and  _276
REMARK  111  A    between atoms: _276  and  _277
REMARK  112  A    between atoms: _280  and  _282
REMARK  113  A    between atoms: _282  and  _283
REMARK  114  A    between atoms: _282  and  _285
REMARK  115  A    between atoms: _285  and  _286
REMARK  116  A    between atoms: _288  and  _290
REMARK  117  A    between atoms: _290  and  _291
REMARK  118  A    between atoms: _290  and  _293
REMARK  119  A    between atoms: _293  and  _294
REMARK  120  A    between atoms: _300  and  _302
REMARK  121  A    between atoms: _302  and  _303
REMARK  122  A    between atoms: _302  and  _305
REMARK  123  A    between atoms: _308  and  _310
REMARK  124  A    between atoms: _310  and  _311
REMARK  125  A    between atoms: _310  and  _313
REMARK  126  A    between atoms: _313  and  _314
REMARK  127  A    between atoms: _317  and  _319
REMARK  128  A    between atoms: _319  and  _320
REMARK  129  A    between atoms: _319  and  _322
REMARK  130  A    between atoms: _322  and  _323
REMARK  131  A    between atoms: _326  and  _328
REMARK  132  A    between atoms: _328  and  _329
REMARK  133  A    between atoms: _328  and  _331
REMARK  134  A    between atoms: _331  and  _332
REMARK  135  A    between atoms: _335  and  _337
REMARK  136  A    between atoms: _337  and  _338
REMARK  137  A    between atoms: _337  and  _340
REMARK  138  A    between atoms: _340  and  _341
REMARK  139  A    between atoms: _344  and  _346
REMARK  140  A    between atoms: _346  and  _347
REMARK  141  A    between atoms: _346  and  _349
REMARK  142  A    between atoms: _349  and  _350
REMARK  143  A    between atoms: _355  and  _356
REMARK  144  A    between atoms: _358  and  _360
REMARK  145  A    between atoms: _360  and  _361
REMARK  146  A    between atoms: _360  and  _363
REMARK  147  A    between atoms: _363  and  _364
REMARK  148  A    between atoms: _369  and  _370
REMARK  149  A    between atoms: _372  and  _374
REMARK  150  A    between atoms: _374  and  _375
REMARK  151  A    between atoms: _374  and  _377
REMARK  152  A    between atoms: _377  and  _378
REMARK  153  A    between atoms: _381  and  _383
REMARK  154  A    between atoms: _383  and  _384
REMARK  155  A    between atoms: _383  and  _386
REMARK  156  A    between atoms: _386  and  _387
REMARK  157  A    between atoms: _387  and  _388
REMARK  158  A    between atoms: _393  and  _395
REMARK  159  A    between atoms: _395  and  _396
REMARK  160  A    between atoms: _395  and  _398
REMARK  161  A    between atoms: _401  and  _403
REMARK  162  A    between atoms: _403  and  _404
REMARK  163  A    between atoms: _403  and  _406
REMARK  164  A    between atoms: _406  and  _407
REMARK  165  A    between atoms: _410  and  _412
REMARK  166  A    between atoms: _412  and  _413
REMARK  167  A    between atoms: _412  and  _415
REMARK  168  A    between atoms: _415  and  _416
REMARK  169  A    between atoms: _418  and  _420
REMARK  170  A    between atoms: _420  and  _421
REMARK  171  A    between atoms: _423  and  _425
REMARK  172  A    between atoms: _425  and  _426
REMARK  173  A    between atoms: _425  and  _428
REMARK  174  A    between atoms: _428  and  _429
REMARK  175  A    between atoms: _434  and  _435
REMARK  176  A    between atoms: _437  and  _439
REMARK  177  A    between atoms: _439  and  _440
REMARK  178  A    between atoms: _439  and  _442
REMARK  179  A    between atoms: _442  and  _443
REMARK  180  A    between atoms: _443  and  _444
REMARK  181  A    between atoms: _449  and  _451
REMARK  182  A    between atoms: _451  and  _452
REMARK  183  A    between atoms: _451  and  _454
REMARK  184  A    between atoms: _454  and  _455
REMARK  185  A    between atoms: _455  and  _456
REMARK  186  A    between atoms: _461  and  _463
REMARK  187  A    between atoms: _463  and  _464
REMARK  188  A    between atoms: _463  and  _466
REMARK  189  A    between atoms: _466  and  _467
REMARK  190  A    between atoms: _472  and  _473
REMARK  191  A    between atoms: _475  and  _477
REMARK  192  A    between atoms: _477  and  _478
REMARK  193  A    between atoms: _481  and  _483
REMARK  194  A    between atoms: _483  and  _484
REMARK  195  A    between atoms: _483  and  _486
REMARK  196  A    between atoms: _486  and  _487
REMARK  197  A    between atoms: _492  and  _493
REMARK  198  A    between atoms: _495  and  _497
REMARK  199  A    between atoms: _497  and  _498
REMARK  200  A    between atoms: _497  and  _500
REMARK  201  A    between atoms: _500  and  _501
REMARK  202  A    between atoms: _506  and  _507
REMARK  203  A    between atoms: _509  and  _511
REMARK  204  A    between atoms: _511  and  _512
REMARK  205  A    between atoms: _511  and  _514
REMARK  206  A    between atoms: _514  and  _515
REMARK  207  A    between atoms: _518  and  _520
REMARK  208  A    between atoms: _520  and  _521
REMARK  209  A    between atoms: _520  and  _523
REMARK  210  A    between atoms: _523  and  _524
REMARK  211  A    between atoms: _534  and  _536
REMARK  212  A    between atoms: _536  and  _537
REMARK  213  A    between atoms: _540  and  _542
REMARK  214  A    between atoms: _542  and  _543
REMARK  215  A    between atoms: _546  and  _548
REMARK  216  A    between atoms: _548  and  _549
REMARK  217  A    between atoms: _548  and  _551
REMARK  218  A    between atoms: _551  and  _552
REMARK  219  A    between atoms: _555  and  _557
REMARK  220  A    between atoms: _557  and  _558
REMARK  221  A    between atoms: _557  and  _560
REMARK  222  A    between atoms: _560  and  _561
REMARK  223  A    between atoms: _564  and  _566
REMARK  224  A    between atoms: _566  and  _567
REMARK  225  A    between atoms: _566  and  _569
REMARK  226  A    between atoms: _569  and  _570
REMARK  227  A    between atoms: _573  and  _575
REMARK  228  A    between atoms: _575  and  _576
REMARK  229  A    between atoms: _575  and  _578
REMARK  230  A    between atoms: _578  and  _579
REMARK  231  A    between atoms: _579  and  _580
REMARK  232  A    between atoms: _580  and  _581
REMARK  233  A    between atoms: _581  and  _582
REMARK  234  A    between atoms: _586  and  _588
REMARK  235  A    between atoms: _588  and  _589
REMARK  236  A    between atoms: _588  and  _591
REMARK  237  A    between atoms: _591  and  _592
REMARK  238  A    between atoms: _597  and  _599
REMARK  239  A    between atoms: _599  and  _600
REMARK  240  A    between atoms: _599  and  _602
REMARK  241  A    between atoms: _602  and  _603
REMARK  242  A    between atoms: _603  and  _604
REMARK  243  A    between atoms: _604  and  _605
REMARK  244  A    between atoms: _605  and  _606
REMARK  245  A    between atoms: _610  and  _612
REMARK  246  A    between atoms: _612  and  _613
REMARK  247  A    between atoms: _612  and  _615
REMARK  248  A    between atoms: _615  and  _616
REMARK  249  A    between atoms: _626  and  _628
REMARK  250  A    between atoms: _628  and  _629
REMARK  251  A    between atoms: _628  and  _631
REMARK  252  A    between atoms: _631  and  _632
REMARK  253  A    between atoms: _632  and  _633
REMARK  254  A    between atoms: _636  and  _638
REMARK  255  A    between atoms: _638  and  _639
REMARK  256  A    between atoms: _642  and  _644
REMARK  257  A    between atoms: _644  and  _645
REMARK  258  A    between atoms: _647  and  _649
REMARK  259  A    between atoms: _649  and  _650
REMARK  260  A    between atoms: _649  and  _652
REMARK  261  A    between atoms: _652  and  _653
REMARK  262  A    between atoms: _653  and  _654
REMARK  263  A    between atoms: _657  and  _659
REMARK  264  A    between atoms: _659  and  _660
REMARK  265  A    between atoms: _663  and  _665
REMARK  266  A    between atoms: _665  and  _666
REMARK  267  A    between atoms: _665  and  _668
REMARK  268  A    between atoms: _668  and  _669
REMARK  269  A    between atoms: _669  and  _670
REMARK  270  A    between atoms: _673  and  _675
REMARK  271  A    between atoms: _675  and  _676
REMARK  272  A    between atoms: _675  and  _678
REMARK  273  A    between atoms: _678  and  _679
REMARK  274  A    between atoms: _679  and  _680
REMARK  275  A    between atoms: _680  and  _681
REMARK  276  A    between atoms: _690  and  _692
REMARK  277  A    between atoms: _692  and  _693
REMARK  278  A    between atoms: _692  and  _695
REMARK  279  A    between atoms: _695  and  _696
REMARK  280  A    between atoms: _699  and  _701
REMARK  281  A    between atoms: _701  and  _702
REMARK  282  A    between atoms: _701  and  _704
REMARK  283  A    between atoms: _704  and  _705
REMARK  284  A    between atoms: _705  and  _706
REMARK  285  A    between atoms: _706  and  _707
REMARK  286  A    between atoms: _716  and  _718
REMARK  287  A    between atoms: _718  and  _719
REMARK  288  A    between atoms: _722  and  _724
REMARK  289  A    between atoms: _724  and  _725
REMARK  290  A    between atoms: _724  and  _727
REMARK  291  A    between atoms: _727  and  _728
REMARK  292  A    between atoms: _733  and  _734
REMARK  293  A    between atoms: _736  and  _738
REMARK  294  A    between atoms: _738  and  _739
REMARK  295  A    between atoms: _738  and  _741
REMARK  296  A    between atoms: _741  and  _742
REMARK  297  A    between atoms: _745  and  _747
REMARK  298  A    between atoms: _747  and  _748
REMARK  299  A    between atoms: _747  and  _750
REMARK  300  A    between atoms: _750  and  _751
REMARK  301  A    between atoms: _754  and  _756
REMARK  302  A    between atoms: _756  and  _757
REMARK  303  A    between atoms: _756  and  _759
REMARK  304  A    between atoms: _761  and  _763
REMARK  305  A    between atoms: _763  and  _764
REMARK  306  A    between atoms: _763  and  _766
REMARK  307  A    between atoms: _769  and  _771
REMARK  308  A    between atoms: _771  and  _772
REMARK  309  A    between atoms: _771  and  _774
REMARK  310  A    between atoms: _774  and  _775
REMARK  311  A    between atoms: _775  and  _776
REMARK  312  A    between atoms: _779  and  _781
REMARK  313  A    between atoms: _781  and  _782
REMARK  314  A    between atoms: _781  and  _784
REMARK  315  A    between atoms: _784  and  _785
REMARK  316  A    between atoms: _795  and  _797
REMARK  317  A    between atoms: _797  and  _798
REMARK  318  A    between atoms: _797  and  _800
REMARK  319  A    between atoms: _800  and  _801
REMARK  320  A    between atoms: _804  and  _806
REMARK  321  A    between atoms: _806  and  _807
REMARK  322  A    between atoms: _806  and  _809
REMARK  323  A    between atoms: _809  and  _810
REMARK  324  A    between atoms: _810  and  _811
REMARK  325  A    between atoms: _811  and  _812
REMARK  326  A    between atoms: _821  and  _823
REMARK  327  A    between atoms: _823  and  _824
REMARK  328  A    between atoms: _823  and  _826
REMARK  329  A    between atoms: _826  and  _827
REMARK  330  A    between atoms: _832  and  _833
REMARK                            x       y       z     vdW  Elec       q    Type
REMARK                         _______ _______ _______ _____ _____    ______ ____
ROOT
ATOM      1  CG  TRP A   1      49.138  57.666 -17.869  0.00  0.00    -0.002 A 
ATOM      2  CD2 TRP A   1      48.994  57.645 -16.453  0.00  0.00    +0.013 A 
ATOM      3  CE3 TRP A   1      48.944  56.620 -15.496  0.00  0.00    +0.001 A 
ATOM      4  CZ3 TRP A   1      48.790  56.960 -14.162  0.00  0.00    +0.000 A 
ATOM      5  CH2 TRP A   1      48.689  58.307 -13.763  0.00  0.00    +0.001 A 
ATOM      6  CZ2 TRP A   1      48.736  59.330 -14.680  0.00  0.00    +0.017 A 
ATOM      7  CE2 TRP A   1      48.890  58.988 -16.021  0.00  0.00    +0.056 A 
ATOM      8  NE1 TRP A   1      48.965  59.784 -17.132  0.00  0.00    -0.352 N 
ATOM      9  HE1 TRP A   1      48.914  60.823 -17.136  0.00  0.00    +0.166 HD
ATOM     10  CD1 TRP A   1      49.118  58.986 -18.241  0.00  0.00    +0.068 A 
ENDROOT
BRANCH   1  11
ATOM     11  CB  TRP A   1      49.265  56.472 -18.772  0.00  0.00    +0.053 C 
BRANCH  11  12
ATOM     12  CA  TRP A   1      50.674  55.881 -18.899  0.00  0.00    +0.137 C 
BRANCH  12  13
ATOM     13  N   TRP A   1      51.646  56.936 -19.175  0.00  0.00    -0.239 NA
ATOM     14  H   TRP A   1      51.466  57.586 -19.967  0.00  0.00    +0.142 HD
ENDBRANCH  12  13
BRANCH  12  15
ATOM     15  C   TRP A   1      50.590  54.817 -19.991  0.00  0.00    +0.224 C 
ATOM     16  O   TRP A   1      50.846  55.086 -21.164  0.00  0.00    -0.287 OA
ENDBRANCH  12  15
ENDBRANCH  11  12
ENDBRANCH   1  11
TORSDOF 4
REMARK  Name = ../refined-set-2016/1fzm/1fzm_pocket.pdb
REMARK  330 active torsions:
REMARK  status: ('A' for Active; 'I' for Inactive)
REMARK    1  A    between atoms: _1  and  _3
REMARK    2  A    between atoms: _3  and  _4
REMARK    3  A    between atoms: _3  and  _6
REMARK    4  A    between atoms: _6  and  _7
REMARK    5  A    between atoms: _10  and  _12
REMARK    6  A    between atoms: _12  and  _13
REMARK    7  A    between atoms: _12  and  _15
REMARK    8  A    between atoms: _15  and  _16
REMARK    9  A    between atoms: _16  and  _17
REMARK   10  A    between atoms: _17  and  _18
REMARK   11  A    between atoms: _27  and  _29
REMARK   12  A    between atoms: _29  and  _30
REMARK   13  A    between atoms: _29  and  _32
REMARK   14  A    between atoms: _32  and  _33
REMARK   15  A    between atoms: _38  and  _39
REMARK   16  A    between atoms: _41  and  _43
REMARK   17  A    between atoms: _43  and  _44
REMARK   18  A    between atoms: _43  and  _46
REMARK   19  A    between atoms: _46  and  _47
REMARK   20  A    between atoms: _53  and  _55
REMARK   21  A    between atoms: _55  and  _56
REMARK   22  A    between atoms: _55  and  _58
REMARK   23  A    between atoms: _61  and  _63
REMARK   24  A    between atoms: _63  and  _64
REMARK   25  A    between atoms: _63  and  _66
REMARK   26  A    between atoms: _66  and  _67
REMARK   27  A    between atoms: _70  and  _72
REMARK   28  A    between atoms: _72  and  _73
REMARK   29  A    between atoms: _72  and  _75
REMARK   30  A    between atoms: _75  and  _76
REMARK   31  A    between atoms: _82  and  _84
REMARK   32  A    between atoms: _84  and  _85
REMARK   33  A    between atoms: _84  and  _87
REMARK   34  A    between atoms: _87  and  _88
REMARK   35  A    between atoms: _90  and  _92
REMARK   36  A    between atoms: _92  and  _93
REMARK   37  A    between atoms: _92  and  _95
REMARK   38  A    between atoms: _98  and  _100
REMARK   39  A    between atoms: _100  and  _101
REMARK   40  A    between atoms: _100  and  _103
REMARK   41  A    between atoms: _103  and  _104
REMARK   42  A    between atoms: _110  and  _112
REMARK   43  A    between atoms: _112  and  _113
REMARK   44  A    between atoms: _112  and  _115
REMARK   45  A    between atoms: _118  and  _120
REMARK   46  A    between atoms: _120  and  _121
REMARK   47  A    between atoms: _120  and  _123
REMARK   48  A    between atoms: _123  and  _124
REMARK   49  A    between atoms: _129  and  _130
REMARK   50  A    between atoms: _132  and  _134
REMARK   51  A    between atoms: _134  and  _135
REMARK   52  A    between atoms: _134  and  _137
REMARK   53  A    between atoms: _137  and  _138
REMARK   54  A    between atoms: _138  and  _139
REMARK   55  A    between atoms: _141  and  _143
REMARK   56  A    between atoms: _143  and  _144
REMARK   57  A    between atoms: _143  and  _146
REMARK   58  A    between atoms: _146  and  _147
REMARK   59  A    between atoms: _147  and  _148
REMARK   60  A    between atoms: _151  and  _153
REMARK   61  A    between atoms: _153  and  _154
REMARK   62  A    between atoms: _156  and  _158
REMARK   63  A    between atoms: _158  and  _159
REMARK   64  A    between atoms: _158  and  _161
REMARK   65  A    between atoms: _161  and  _162
REMARK   66  A    between atoms: _162  and  _163
REMARK   67  A    between atoms: _166  and  _168
REMARK   68  A    between atoms: _168  and  _169
REMARK   69  A    between atoms: _168  and  _171
REMARK   70  A    between atoms: _171  and  _172
REMARK   71  A    between atoms: _177  and  _178
REMARK   72  A    between atoms: _180  and  _182
REMARK   73  A    between atoms: _182  and  _183
REMARK   74  A    between atoms: _182  and  _185
REMARK   75  A    between atoms: _185  and  _186
REMARK   76  A    between atoms: _196  and  _198
REMARK   77  A    between atoms: _198  and  _199
REMARK   78  A    between atoms: _198  and  _201
REMARK   79  A    between atoms: _201  and  _202
REMARK   80  A    between atoms: _202  and  _203
REMARK   81  A    between atoms: _203  and  _204
REMARK   82  A    between atoms: _213  and  _215
REMARK   83  A    between atoms: _215  and  _216
REMARK   84  A    between atoms: _215  and  _218
REMARK   85  A    between atoms: _218  and  _219
REMARK   86  A    between atoms: _219  and  _220
REMARK   87  A    between atoms: _223  and  _225
REMARK   88  A    between atoms: _225  and  _226
REMARK   89  A    between atoms: _225  and  _228
REMARK   90  A    between atoms: _228  and  _229
REMARK   91  A    between atoms: _229  and  _230
REMARK   92  A    between atoms: _235  and  _237
REMARK   93  A    between atoms: _237  and  _238
REMARK   94  A    between atoms: _237  and  _240
REMARK   95  A    between atoms: _240  and  _241
REMARK   96  A    between atoms: _241  and  _242
REMARK   97  A    between atoms: _242  and  _243
REMARK   98  A    between atoms: _243  and  _244
REMARK   99  A    between atoms: _248  and  _250
REMARK  100  A    between atoms: _250  and  _251
REMARK  101  A    between atoms: _254  and  _256
REMARK  102  A    between atoms: _256  and  _257
REMARK  103  A    between atoms: _259  and  _261
REMARK  104  A    between atoms: _261  and  _262
REMARK  105  A    between atoms: _261  and  _264
REMARK  106  A    between atoms: _264  and  _265
REMARK  107  A    between atoms: _270  and  _272
REMARK  108  A    between atoms: _272  and  _273
REMARK  109  A    between atoms: _272  and  _275
REMARK  110  A    between atoms: _275  and  _276
REMARK  111  A    between atoms: _276  and  _277
REMARK  112  A    between atoms: _280  and  _282
REMARK  113  A    between atoms: _282  and  _283
REMARK  114  A    between atoms: _282  and  _285
REMARK  115  A    between atoms: _285  and  _286
REMARK  116  A    between atoms: _288  and  _290
REMARK  117  A    between atoms: _290  and  _291
REMARK  118  A    between atoms: _290  and  _293
REMARK  119  A    between atoms: _293  and  _294
REMARK  120  A    between atoms: _300  and  _302
REMARK  121  A    between atoms: _302  and  _303
REMARK  122  A    between atoms: _302  and  _305
REMARK  123  A    between atoms: _308  and  _310
REMARK  124  A    between atoms: _310  and  _311
REMARK  125  A    between atoms: _310  and  _313
REMARK  126  A    between atoms: _313  and  _314
REMARK  127  A    between atoms: _317  and  _319
REMARK  128  A    between atoms: _319  and  _320
REMARK  129  A    between atoms: _319  and  _322
REMARK  130  A    between atoms: _322  and  _323
REMARK  131  A    between atoms: _326  and  _328
REMARK  132  A    between atoms: _328  and  _329
REMARK  133  A    between atoms: _328  and  _331
REMARK  134  A    between atoms: _331  and  _332
REMARK  135  A    between atoms: _335  and  _337
REMARK  136  A    between atoms: _337  and  _338
REMARK  137  A    between atoms: _337  and  _340
REMARK  138  A    between atoms: _340  and  _341
REMARK  139  A    between atoms: _344  and  _346
REMARK  140  A    between atoms: _346  and  _347
REMARK  141  A    between atoms: _346  and  _349
REMARK  142  A    between atoms: _349  and  _350
REMARK  143  A    between atoms: _355  and  _356
REMARK  144  A    between atoms: _358  and  _360
REMARK  145  A    between atoms: _360  and  _361
REMARK  146  A    between atoms: _360  and  _363
REMARK  147  A    between atoms: _363  and  _364
REMARK  148  A    between atoms: _369  and  _370
REMARK  149  A    between atoms: _372  and  _374
REMARK  150  A    between atoms: _374  and  _375
REMARK  151  A    between atoms: _374  and  _377
REMARK  152  A    between atoms: _377  and  _378
REMARK  153  A    between atoms: _381  and  _383
REMARK  154  A    between atoms: _383  and  _384
REMARK  155  A    between atoms: _383  and  _386
REMARK  156  A    between atoms: _386  and  _387
REMARK  157  A    between atoms: _387  and  _388
REMARK  158  A    between atoms: _393  and  _395
REMARK  159  A    between atoms: _395  and  _396
REMARK  160  A    between atoms: _395  and  _398
REMARK  161  A    between atoms: _401  and  _403
REMARK  162  A    between atoms: _403  and  _404
REMARK  163  A    between atoms: _403  and  _406
REMARK  164  A    between atoms: _406  and  _407
REMARK  165  A    between atoms: _410  and  _412
REMARK  166  A    between atoms: _412  and  _413
REMARK  167  A    between atoms: _412  and  _415
REMARK  168  A    between atoms: _415  and  _416
REMARK  169  A    between atoms: _418  and  _420
REMARK  170  A    between atoms: _420  and  _421
REMARK  171  A    between atoms: _423  and  _425
REMARK  172  A    between atoms: _425  and  _426
REMARK  173  A    between atoms: _425  and  _428
REMARK  174  A    between atoms: _428  and  _429
REMARK  175  A    between atoms: _434  and  _435
REMARK  176  A    between atoms: _437  and  _439
REMARK  177  A    between atoms: _439  and  _440
REMARK  178  A    between atoms: _439  and  _442
REMARK  179  A    between atoms: _442  and  _443
REMARK  180  A    between atoms: _443  and  _444
REMARK  181  A    between atoms: _449  and  _451
REMARK  182  A    between atoms: _451  and  _452
REMARK  183  A    between atoms: _451  and  _454
REMARK  184  A    between atoms: _454  and  _455
REMARK  185  A    between atoms: _455  and  _456
REMARK  186  A    between atoms: _461  and  _463
REMARK  187  A    between atoms: _463  and  _464
REMARK  188  A    between atoms: _463  and  _466
REMARK  189  A    between atoms: _466  and  _467
REMARK  190  A    between atoms: _472  and  _473
REMARK  191  A    between atoms: _475  and  _477
REMARK  192  A    between atoms: _477  and  _478
REMARK  193  A    between atoms: _481  and  _483
REMARK  194  A    between atoms: _483  and  _484
REMARK  195  A    between atoms: _483  and  _486
REMARK  196  A    between atoms: _486  and  _487
REMARK  197  A    between atoms: _492  and  _493
REMARK  198  A    between atoms: _495  and  _497
REMARK  199  A    between atoms: _497  and  _498
REMARK  200  A    between atoms: _497  and  _500
REMARK  201  A    between atoms: _500  and  _501
REMARK  202  A    between atoms: _506  and  _507
REMARK  203  A    between atoms: _509  and  _511
REMARK  204  A    between atoms: _511  and  _512
REMARK  205  A    between atoms: _511  and  _514
REMARK  206  A    between atoms: _514  and  _515
REMARK  207  A    between atoms: _518  and  _520
REMARK  208  A    between atoms: _520  and  _521
REMARK  209  A    between atoms: _520  and  _523
REMARK  210  A    between atoms: _523  and  _524
REMARK  211  A    between atoms: _534  and  _536
REMARK  212  A    between atoms: _536  and  _537
REMARK  213  A    between atoms: _540  and  _542
REMARK  214  A    between atoms: _542  and  _543
REMARK  215  A    between atoms: _546  and  _548
REMARK  216  A    between atoms: _548  and  _549
REMARK  217  A    between atoms: _548  and  _551
REMARK  218  A    between atoms: _551  and  _552
REMARK  219  A    between atoms: _555  and  _557
REMARK  220  A    between atoms: _557  and  _558
REMARK  221  A    between atoms: _557  and  _560
REMARK  222  A    between atoms: _560  and  _561
REMARK  223  A    between atoms: _564  and  _566
REMARK  224  A    between atoms: _566  and  _567
REMARK  225  A    between atoms: _566  and  _569
REMARK  226  A    between atoms: _569  and  _570
REMARK  227  A    between atoms: _573  and  _575
REMARK  228  A    between atoms: _575  and  _576
REMARK  229  A    between atoms: _575  and  _578
REMARK  230  A    between atoms: _578  and  _579
REMARK  231  A    between atoms: _579  and  _580
REMARK  232  A    between atoms: _580  and  _581
REMARK  233  A    between atoms: _581  and  _582
REMARK  234  A    between atoms: _586  and  _588
REMARK  235  A    between atoms: _588  and  _589
REMARK  236  A    between atoms: _588  and  _591
REMARK  237  A    between atoms: _591  and  _592
REMARK  238  A    between atoms: _597  and  _599
REMARK  239  A    between atoms: _599  and  _600
REMARK  240  A    between atoms: _599  and  _602
REMARK  241  A    between atoms: _602  and  _603
REMARK  242  A    between atoms: _603  and  _604
REMARK  243  A    between atoms: _604  and  _605
REMARK  244  A    between atoms: _605  and  _606
REMARK  245  A    between atoms: _610  and  _612
REMARK  246  A    between atoms: _612  and  _613
REMARK  247  A    between atoms: _612  and  _615
REMARK  248  A    between atoms: _615  and  _616
REMARK  249  A    between atoms: _626  and  _628
REMARK  250  A    between atoms: _628  and  _629
REMARK  251  A    between atoms: _628  and  _631
REMARK  252  A    between atoms: _631  and  _632
REMARK  253  A    between atoms: _632  and  _633
REMARK  254  A    between atoms: _636  and  _638
REMARK  255  A    between atoms: _638  and  _639
REMARK  256  A    between atoms: _642  and  _644
REMARK  257  A    between atoms: _644  and  _645
REMARK  258  A    between atoms: _647  and  _649
REMARK  259  A    between atoms: _649  and  _650
REMARK  260  A    between atoms: _649  and  _652
REMARK  261  A    between atoms: _652  and  _653
REMARK  262  A    between atoms: _653  and  _654
REMARK  263  A    between atoms: _657  and  _659
REMARK  264  A    between atoms: _659  and  _660
REMARK  265  A    between atoms: _663  and  _665
REMARK  266  A    between atoms: _665  and  _666
REMARK  267  A    between atoms: _665  and  _668
REMARK  268  A    between atoms: _668  and  _669
REMARK  269  A    between atoms: _669  and  _670
REMARK  270  A    between atoms: _673  and  _675
REMARK  271  A    between atoms: _675  and  _676
REMARK  272  A    between atoms: _675  and  _678
REMARK  273  A    between atoms: _678  and  _679
REMARK  274  A    between atoms: _679  and  _680
REMARK  275  A    between atoms: _680  and  _681
REMARK  276  A    between atoms: _690  and  _692
REMARK  277  A    between atoms: _692  and  _693
REMARK  278  A    between atoms: _692  and  _695
REMARK  279  A    between atoms: _695  and  _696
REMARK  280  A    between atoms: _699  and  _701
REMARK  281  A    between atoms: _701  and  _702
REMARK  282  A    between atoms: _701  and  _704
REMARK  283  A    between atoms: _704  and  _705
REMARK  284  A    between atoms: _705  and  _706
REMARK  285  A    between atoms: _706  and  _707
REMARK  286  A    between atoms: _716  and  _718
REMARK  287  A    between atoms: _718  and  _719
REMARK  288  A    between atoms: _722  and  _724
REMARK  289  A    between atoms: _724  and  _725
REMARK  290  A    between atoms: _724  and  _727
REMARK  291  A    between atoms: _727  and  _728
REMARK  292  A    between atoms: _733  and  _734
REMARK  293  A    between atoms: _736  and  _738
REMARK  294  A    between atoms: _738  and  _739
REMARK  295  A    between atoms: _738  and  _741
REMARK  296  A    between atoms: _741  and  _742
REMARK  297  A    between atoms: _745  and  _747
REMARK  298  A    between atoms: _747  and  _748
REMARK  299  A    between atoms: _747  and  _750
REMARK  300  A    between atoms: _750  and  _751
REMARK  301  A    between atoms: _754  and  _756
REMARK  302  A    between atoms: _756  and  _757
REMARK  303  A    between atoms: _756  and  _759
REMARK  304  A    between atoms: _761  and  _763
REMARK  305  A    between atoms: _763  and  _764
REMARK  306  A    between atoms: _763  and  _766
REMARK  307  A    between atoms: _769  and  _771
REMARK  308  A    between atoms: _771  and  _772
REMARK  309  A    between atoms: _771  and  _774
REMARK  310  A    between atoms: _774  and  _775
REMARK  311  A    between atoms: _775  and  _776
REMARK  312  A    between atoms: _779  and  _781
REMARK  313  A    between atoms: _781  and  _782
REMARK  314  A    between atoms: _781  and  _784
REMARK  315  A    between atoms: _784  and  _785
REMARK  316  A    between atoms: _795  and  _797
REMARK  317  A    between atoms: _797  and  _798
REMARK  318  A    between atoms: _797  and  _800
REMARK  319  A    between atoms: _800  and  _801
REMARK  320  A    between atoms: _804  and  _806
REMARK  321  A    between atoms: _806  and  _807
REMARK  322  A    between atoms: _806  and  _809
REMARK  323  A    between atoms: _809  and  _810
REMARK  324  A    between atoms: _810  and  _811
REMARK  325  A    between atoms: _811  and  _812
REMARK  326  A    between atoms: _821  and  _823
REMARK  327  A    between atoms: _823  and  _824
REMARK  328  A    between atoms: _823  and  _826
REMARK  329  A    between atoms: _826  and  _827
REMARK  330  A    between atoms: _832  and  _833
REMARK                            x       y       z     vdW  Elec       q    Type
REMARK                         _______ _______ _______ _____ _____    ______ ____
ROOT
ATOM      1  C   LYS A   6      44.640  59.678 -20.955  0.00  0.00    +0.241 C 
ATOM      2  O   LYS A   6      45.355  60.542 -20.436  0.00  0.00    -0.273 OA
ATOM      3  N   HIS A   7      43.811  59.938 -21.957  0.00  0.00    -0.297 N 
ATOM      4  H   HIS A   7      43.233  59.172 -22.358  0.00  0.00    +0.150 HD
ENDROOT
BRANCH   3   5
ATOM      5  CA  HIS A   7      43.700  61.285 -22.503  0.00  0.00    +0.155 C 
BRANCH   5   6
ATOM      6  C   HIS A   7      43.215  62.294 -21.447  0.00  0.00    +0.241 C 
ATOM      7  N   LYS A   8      42.242  61.915 -20.615  0.00  0.00    -0.297 N 
ATOM      8  H   LYS A   8      41.825  60.967 -20.709  0.00  0.00    +0.150 HD
ATOM      9  O   HIS A   7      43.729  63.410 -21.383  0.00  0.00    -0.273 OA
BRANCH   7  10
ATOM     10  CA  LYS A   8      41.754  62.823 -19.569  0.00  0.00    +0.149 C 
BRANCH  10  11
ATOM     11  C   LYS A   8      42.868  63.145 -18.573  0.00  0.00    +0.241 C 
ATOM     12  N   TRP A   9      43.573  62.106 -18.141  0.00  0.00    -0.297 N 
ATOM     13  H   TRP A   9      43.356  61.155 -18.503  0.00  0.00    +0.150 HD
ATOM     14  O   LYS A   8      43.075  64.303 -18.188  0.00  0.00    -0.273 OA
BRANCH  12  15
ATOM     15  CA  TRP A   9      44.645  62.274 -17.170  0.00  0.00    +0.153 C 
BRANCH  15  16
ATOM     16  C   TRP A   9      45.799  63.123 -17.702  0.00  0.00    +0.241 C 
ATOM     17  O   TRP A   9      46.429  63.852 -16.936  0.00  0.00    -0.273 OA
ATOM     18  N   GLU A  10      46.064  63.043 -19.001  0.00  0.00    -0.298 N 
ATOM     19  H   GLU A  10      45.499  62.409 -19.602  0.00  0.00    +0.150 HD
BRANCH  18  20
ATOM     20  CA  GLU A  10      47.139  63.833 -19.598  0.00  0.00    +0.137 C 
BRANCH  20  21
ATOM     21  C   GLU A  10      46.749  65.319 -19.629  0.00  0.00    +0.227 C 
ATOM     22  O   GLU A  10      47.577  66.184 -19.371  0.00  0.00    -0.286 OA
ENDBRANCH  20  21
BRANCH  20  23
ATOM     23  CB  GLU A  10      47.465  63.320 -21.004  0.00  0.00    +0.039 C 
BRANCH  23  24
ATOM     24  CG  GLU A  10      47.970  61.878 -20.998  0.00  0.00    +0.116 C 
BRANCH  24  25
ATOM     25  CD  GLU A  10      48.327  61.350 -22.371  0.00  0.00    +0.365 C 
ATOM     26  OE2 GLU A  10      49.251  60.519 -22.452  0.00  0.00    -0.246 OA
ATOM     27  OE1 GLU A  10      47.682  61.742 -23.366  0.00  0.00    -0.246 OA
ENDBRANCH  24  25
ENDBRANCH  23  24
ENDBRANCH  20  23
ENDBRANCH  18  20
ENDBRANCH  15  16
BRANCH  15  28
ATOM     28  CB  TRP A   9      45.141  60.898 -16.695  0.00  0.00    +0.057 C 
BRANCH  28  29
ATOM     29  CG  TRP A   9      44.184  60.223 -15.733  0.00  0.00    -0.002 A 
ATOM     30  CD2 TRP A   9      44.385  58.982 -15.041  0.00  0.00    +0.013 A 
ATOM     31  CE2 TRP A   9      43.239  58.757 -14.240  0.00  0.00    +0.056 A 
ATOM     32  CZ2 TRP A   9      43.101  57.625 -13.425  0.00  0.00    +0.017 A 
ATOM     33  CH2 TRP A   9      44.129  56.715 -13.423  0.00  0.00    +0.001 A 
ATOM     34  CZ3 TRP A   9      45.284  56.908 -14.210  0.00  0.00    +0.000 A 
ATOM     35  NE1 TRP A   9      42.385  59.812 -14.436  0.00  0.00    -0.352 N 
ATOM     36  HE1 TRP A   9      41.458  59.932 -13.981  0.00  0.00    +0.166 HD
ATOM     37  CE3 TRP A   9      45.422  58.037 -15.022  0.00  0.00    +0.001 A 
ATOM     38  CD1 TRP A   9      42.955  60.686 -15.333  0.00  0.00    +0.068 A 
ENDBRANCH  28  29
ENDBRANCH  15  28
ENDBRANCH  12  15
ENDBRANCH  10  11
BRANCH  10  39
ATOM     39  CB  LYS A   8      40.589  62.204 -18.776  0.00  0.00    +0.029 C 
BRANCH  39  40
ATOM     40  CG  LYS A   8      39.280  62.032 -19.541  0.00  0.00    +0.000 C 
BRANCH  40  41
ATOM     41  CD  LYS A   8      38.177  61.581 -18.593  0.00  0.00    -0.024 C 
BRANCH  41  42
ATOM     42  CE  LYS A   8      36.843  61.414 -19.314  0.00  0.00    -0.086 C 
BRANCH  42  43
ATOM     43  NZ  LYS A   8      35.819  60.903 -18.361  0.00  0.00    +0.380 N 
ATOM     44  HZ1 LYS A   8      35.707  61.579 -17.579  0.00  0.00    -0.089 HD
ATOM     45  HZ2 LYS A   8      36.126  59.983 -17.984  0.00  0.00    -0.089 HD
ATOM     46  HZ3 LYS A   8      34.912  60.791 -18.856  0.00  0.00    -0.089 HD
ENDBRANCH  42  43
ENDBRANCH  41  42
ENDBRANCH  40  41
ENDBRANCH  39  40
ENDBRANCH  10  39
ENDBRANCH   7  10
ENDBRANCH   5   6
BRANCH   5  47
ATOM     47  CB  HIS A   7      42.781  61.287 -23.732  0.00  0.00    +0.076 C 
BRANCH  47  48
ATOM     48  CG  HIS A   7      43.333  60.526 -24.905  0.00  0.00    +0.082 A 
ATOM     49  ND1 HIS A   7      44.686  60.393 -25.141  0.00  0.00    -0.227 NA
ATOM     50  CE1 HIS A   7      44.873  59.740 -26.274  0.00  0.00    +0.199 A 
ATOM     51  NE2 HIS A   7      43.690  59.440 -26.781  0.00  0.00    -0.221 NA
ATOM     52  CD2 HIS A   7      42.711  59.917 -25.943  0.00  0.00    +0.115 A 
ENDBRANCH  47  48
ENDBRANCH   5  47
ENDBRANCH   3   5
BRANCH   1  53
ATOM     53  CA  LYS A   6      44.666  58.234 -20.460  0.00  0.00    +0.149 C 
BRANCH  53  56
ATOM     54  C   THR A   5      42.462  58.380 -19.427  0.00  0.00    +0.243 C 
ATOM     55  O   THR A   5      42.776  59.402 -18.807  0.00  0.00    -0.273 OA
ATOM     56  N   LYS A   6      43.297  57.752 -20.252  0.00  0.00    -0.297 N 
ATOM     57  H   LYS A   6      42.972  56.904 -20.758  0.00  0.00    +0.150 HD
BRANCH  54  58
ATOM     58  CA  THR A   5      41.058  57.783 -19.287  0.00  0.00    +0.176 C 
BRANCH  58  60
ATOM     59  C   ILE A   4      40.405  58.238 -21.592  0.00  0.00    +0.241 C 
ATOM     60  N   THR A   5      40.587  57.365 -20.604  0.00  0.00    -0.295 N 
ATOM     61  H   THR A   5      40.388  56.359 -20.775  0.00  0.00    +0.150 HD
ATOM     62  O   ILE A   4      40.610  59.446 -21.462  0.00  0.00    -0.273 OA
BRANCH  59  63
ATOM     63  CA  ILE A   4      39.923  57.662 -22.924  0.00  0.00    +0.149 C 
BRANCH  63  65
ATOM     64  C   LEU A   3      41.997  56.509 -23.458  0.00  0.00    +0.241 C 
ATOM     65  N   ILE A   4      40.696  56.448 -23.185  0.00  0.00    -0.297 N 
ATOM     66  H   ILE A   4      40.222  55.523 -23.157  0.00  0.00    +0.150 HD
ATOM     67  O   LEU A   3      42.608  57.576 -23.542  0.00  0.00    -0.273 OA
BRANCH  64  68
ATOM     68  CA  LEU A   3      42.722  55.175 -23.658  0.00  0.00    +0.149 C 
BRANCH  68  71
ATOM     69  C   ALA A   2      42.156  54.186 -21.504  0.00  0.00    +0.241 C 
ATOM     70  O   ALA A   2      42.758  55.069 -20.885  0.00  0.00    -0.273 OA
ATOM     71  N   LEU A   3      42.086  54.152 -22.831  0.00  0.00    -0.297 N 
ATOM     72  H   LEU A   3      41.566  53.378 -23.292  0.00  0.00    +0.150 HD
BRANCH  69  73
ATOM     73  CA  ALA A   2      41.431  53.065 -20.756  0.00  0.00    +0.149 C 
ATOM     74  CB  ALA A   2      42.404  51.957 -20.386  0.00  0.00    +0.031 C 
BRANCH  73  76
ATOM     75  C   ALA A   1      39.330  53.284 -21.953  0.00  0.00    +0.238 C 
ATOM     76  N   ALA A   2      40.357  52.528 -21.579  0.00  0.00    -0.297 N 
ATOM     77  H   ALA A   2      40.394  51.533 -21.880  0.00  0.00    +0.150 HD
ATOM     78  O   ALA A   1      39.222  54.474 -21.632  0.00  0.00    -0.274 OA
BRANCH  75  79
ATOM     79  CA  ALA A   1      38.275  52.592 -22.819  0.00  0.00    +0.145 C 
ATOM     80  CB  ALA A   1      37.446  51.641 -21.966  0.00  0.00    +0.028 C 
BRANCH  79  81
ATOM     81  N   ALA A   1      38.970  51.858 -23.874  0.00  0.00    -0.238 NA
ATOM     82  H   ALA A   1      39.009  50.819 -23.838  0.00  0.00    +0.142 HD
ENDBRANCH  79  81
ENDBRANCH  75  79
ENDBRANCH  73  76
ENDBRANCH  69  73
ENDBRANCH  68  71
BRANCH  68  83
ATOM     83  CB  LEU A   3      42.706  54.759 -25.133  0.00  0.00    +0.029 C 
BRANCH  83  84
ATOM     84  CG  LEU A   3      43.516  55.610 -26.112  0.00  0.00    +0.002 C 
ATOM     85  CD2 LEU A   3      44.950  55.766 -25.598  0.00  0.00    +0.000 C 
ATOM     86  CD1 LEU A   3      43.497  54.961 -27.493  0.00  0.00    +0.000 C 
ENDBRANCH  83  84
ENDBRANCH  68  83
ENDBRANCH  64  68
ENDBRANCH  63  65
BRANCH  63  87
ATOM     87  CB  ILE A   4      38.404  57.372 -22.808  0.00  0.00    +0.027 C 
ATOM     88  CG2 ILE A   4      37.661  58.645 -22.398  0.00  0.00    +0.002 C 
BRANCH  87  89
ATOM     89  CG1 ILE A   4      37.863  56.845 -24.140  0.00  0.00    +0.002 C 
ATOM     90  CD1 ILE A   4      36.383  56.439 -24.087  0.00  0.00    +0.000 C 
ENDBRANCH  87  89
ENDBRANCH  63  87
ENDBRANCH  59  63
ENDBRANCH  58  60
BRANCH  58  91
ATOM     91  CB  THR A   5      41.093  56.584 -18.291  0.00  0.00    +0.137 C 
ATOM     92  CG2 THR A   5      41.749  56.973 -16.980  0.00  0.00    +0.034 C 
BRANCH  91  93
ATOM     93  OG1 THR A   5      39.751  56.159 -18.004  0.00  0.00    -0.382 OA
ATOM     94  HG1 THR A   5      39.248  56.910 -17.600  0.00  0.00    +0.210 HD
ENDBRANCH  91  93
ENDBRANCH  58  91
ENDBRANCH  54  58
ENDBRANCH  53  56
BRANCH  53  95
ATOM     95  CB  LYS A   6      45.394  57.352 -21.480  0.00  0.00    +0.029 C 
BRANCH  95  96
ATOM     96  CG  LYS A   6      46.851  57.762 -21.767  0.00  0.00    +0.000 C 
BRANCH  96  97
ATOM     97  CD  LYS A   6      47.527  56.743 -22.690  0.00  0.00    -0.024 C 
BRANCH  97  98
ATOM     98  CE  LYS A   6      49.020  57.027 -22.909  0.00  0.00    -0.086 C 
BRANCH  98  99
ATOM     99  NZ  LYS A   6      49.265  58.192 -23.805  0.00  0.00    +0.380 N 
ATOM    100  HZ1 LYS A   6      48.838  59.044 -23.388  0.00  0.00    -0.089 HD
ATOM    101  HZ2 LYS A   6      50.289  58.334 -23.915  0.00  0.00    -0.089 HD
ATOM    102  HZ3 LYS A   6      48.838  58.008 -24.735  0.00  0.00    -0.089 HD
ENDBRANCH  98  99
ENDBRANCH  97  98
ENDBRANCH  96  97
ENDBRANCH  95  96
ENDBRANCH  53  95
ENDBRANCH   1  53
TORSDOF 43
REMARK  Name = ../refined-set-2016/1fzm/1fzm_pocket.pdb
REMARK  330 active torsions:
REMARK  status: ('A' for Active; 'I' for Inactive)
REMARK    1  A    between atoms: _1  and  _3
REMARK    2  A    between atoms: _3  and  _4
REMARK    3  A    between atoms: _3  and  _6
REMARK    4  A    between atoms: _6  and  _7
REMARK    5  A    between atoms: _10  and  _12
REMARK    6  A    between atoms: _12  and  _13
REMARK    7  A    between atoms: _12  and  _15
REMARK    8  A    between atoms: _15  and  _16
REMARK    9  A    between atoms: _16  and  _17
REMARK   10  A    between atoms: _17  and  _18
REMARK   11  A    between atoms: _27  and  _29
REMARK   12  A    between atoms: _29  and  _30
REMARK   13  A    between atoms: _29  and  _32
REMARK   14  A    between atoms: _32  and  _33
REMARK   15  A    between atoms: _38  and  _39
REMARK   16  A    between atoms: _41  and  _43
REMARK   17  A    between atoms: _43  and  _44
REMARK   18  A    between atoms: _43  and  _46
REMARK   19  A    between atoms: _46  and  _47
REMARK   20  A    between atoms: _53  and  _55
REMARK   21  A    between atoms: _55  and  _56
REMARK   22  A    between atoms: _55  and  _58
REMARK   23  A    between atoms: _61  and  _63
REMARK   24  A    between atoms: _63  and  _64
REMARK   25  A    between atoms: _63  and  _66
REMARK   26  A    between atoms: _66  and  _67
REMARK   27  A    between atoms: _70  and  _72
REMARK   28  A    between atoms: _72  and  _73
REMARK   29  A    between atoms: _72  and  _75
REMARK   30  A    between atoms: _75  and  _76
REMARK   31  A    between atoms: _82  and  _84
REMARK   32  A    between atoms: _84  and  _85
REMARK   33  A    between atoms: _84  and  _87
REMARK   34  A    between atoms: _87  and  _88
REMARK   35  A    between atoms: _90  and  _92
REMARK   36  A    between atoms: _92  and  _93
REMARK   37  A    between atoms: _92  and  _95
REMARK   38  A    between atoms: _98  and  _100
REMARK   39  A    between atoms: _100  and  _101
REMARK   40  A    between atoms: _100  and  _103
REMARK   41  A    between atoms: _103  and  _104
REMARK   42  A    between atoms: _110  and  _112
REMARK   43  A    between atoms: _112  and  _113
REMARK   44  A    between atoms: _112  and  _115
REMARK   45  A    between atoms: _118  and  _120
REMARK   46  A    between atoms: _120  and  _121
REMARK   47  A    between atoms: _120  and  _123
REMARK   48  A    between atoms: _123  and  _124
REMARK   49  A    between atoms: _129  and  _130
REMARK   50  A    between atoms: _132  and  _134
REMARK   51  A    between atoms: _134  and  _135
REMARK   52  A    between atoms: _134  and  _137
REMARK   53  A    between atoms: _137  and  _138
REMARK   54  A    between atoms: _138  and  _139
REMARK   55  A    between atoms: _141  and  _143
REMARK   56  A    between atoms: _143  and  _144
REMARK   57  A    between atoms: _143  and  _146
REMARK   58  A    between atoms: _146  and  _147
REMARK   59  A    between atoms: _147  and  _148
REMARK   60  A    between atoms: _151  and  _153
REMARK   61  A    between atoms: _153  and  _154
REMARK   62  A    between atoms: _156  and  _158
REMARK   63  A    between atoms: _158  and  _159
REMARK   64  A    between atoms: _158  and  _161
REMARK   65  A    between atoms: _161  and  _162
REMARK   66  A    between atoms: _162  and  _163
REMARK   67  A    between atoms: _166  and  _168
REMARK   68  A    between atoms: _168  and  _169
REMARK   69  A    between atoms: _168  and  _171
REMARK   70  A    between atoms: _171  and  _172
REMARK   71  A    between atoms: _177  and  _178
REMARK   72  A    between atoms: _180  and  _182
REMARK   73  A    between atoms: _182  and  _183
REMARK   74  A    between atoms: _182  and  _185
REMARK   75  A    between atoms: _185  and  _186
REMARK   76  A    between atoms: _196  and  _198
REMARK   77  A    between atoms: _198  and  _199
REMARK   78  A    between atoms: _198  and  _201
REMARK   79  A    between atoms: _201  and  _202
REMARK   80  A    between atoms: _202  and  _203
REMARK   81  A    between atoms: _203  and  _204
REMARK   82  A    between atoms: _213  and  _215
REMARK   83  A    between atoms: _215  and  _216
REMARK   84  A    between atoms: _215  and  _218
REMARK   85  A    between atoms: _218  and  _219
REMARK   86  A    between atoms: _219  and  _220
REMARK   87  A    between atoms: _223  and  _225
REMARK   88  A    between atoms: _225  and  _226
REMARK   89  A    between atoms: _225  and  _228
REMARK   90  A    between atoms: _228  and  _229
REMARK   91  A    between atoms: _229  and  _230
REMARK   92  A    between atoms: _235  and  _237
REMARK   93  A    between atoms: _237  and  _238
REMARK   94  A    between atoms: _237  and  _240
REMARK   95  A    between atoms: _240  and  _241
REMARK   96  A    between atoms: _241  and  _242
REMARK   97  A    between atoms: _242  and  _243
REMARK   98  A    between atoms: _243  and  _244
REMARK   99  A    between atoms: _248  and  _250
REMARK  100  A    between atoms: _250  and  _251
REMARK  101  A    between atoms: _254  and  _256
REMARK  102  A    between atoms: _256  and  _257
REMARK  103  A    between atoms: _259  and  _261
REMARK  104  A    between atoms: _261  and  _262
REMARK  105  A    between atoms: _261  and  _264
REMARK  106  A    between atoms: _264  and  _265
REMARK  107  A    between atoms: _270  and  _272
REMARK  108  A    between atoms: _272  and  _273
REMARK  109  A    between atoms: _272  and  _275
REMARK  110  A    between atoms: _275  and  _276
REMARK  111  A    between atoms: _276  and  _277
REMARK  112  A    between atoms: _280  and  _282
REMARK  113  A    between atoms: _282  and  _283
REMARK  114  A    between atoms: _282  and  _285
REMARK  115  A    between atoms: _285  and  _286
REMARK  116  A    between atoms: _288  and  _290
REMARK  117  A    between atoms: _290  and  _291
REMARK  118  A    between atoms: _290  and  _293
REMARK  119  A    between atoms: _293  and  _294
REMARK  120  A    between atoms: _300  and  _302
REMARK  121  A    between atoms: _302  and  _303
REMARK  122  A    between atoms: _302  and  _305
REMARK  123  A    between atoms: _308  and  _310
REMARK  124  A    between atoms: _310  and  _311
REMARK  125  A    between atoms: _310  and  _313
REMARK  126  A    between atoms: _313  and  _314
REMARK  127  A    between atoms: _317  and  _319
REMARK  128  A    between atoms: _319  and  _320
REMARK  129  A    between atoms: _319  and  _322
REMARK  130  A    between atoms: _322  and  _323
REMARK  131  A    between atoms: _326  and  _328
REMARK  132  A    between atoms: _328  and  _329
REMARK  133  A    between atoms: _328  and  _331
REMARK  134  A    between atoms: _331  and  _332
REMARK  135  A    between atoms: _335  and  _337
REMARK  136  A    between atoms: _337  and  _338
REMARK  137  A    between atoms: _337  and  _340
REMARK  138  A    between atoms: _340  and  _341
REMARK  139  A    between atoms: _344  and  _346
REMARK  140  A    between atoms: _346  and  _347
REMARK  141  A    between atoms: _346  and  _349
REMARK  142  A    between atoms: _349  and  _350
REMARK  143  A    between atoms: _355  and  _356
REMARK  144  A    between atoms: _358  and  _360
REMARK  145  A    between atoms: _360  and  _361
REMARK  146  A    between atoms: _360  and  _363
REMARK  147  A    between atoms: _363  and  _364
REMARK  148  A    between atoms: _369  and  _370
REMARK  149  A    between atoms: _372  and  _374
REMARK  150  A    between atoms: _374  and  _375
REMARK  151  A    between atoms: _374  and  _377
REMARK  152  A    between atoms: _377  and  _378
REMARK  153  A    between atoms: _381  and  _383
REMARK  154  A    between atoms: _383  and  _384
REMARK  155  A    between atoms: _383  and  _386
REMARK  156  A    between atoms: _386  and  _387
REMARK  157  A    between atoms: _387  and  _388
REMARK  158  A    between atoms: _393  and  _395
REMARK  159  A    between atoms: _395  and  _396
REMARK  160  A    between atoms: _395  and  _398
REMARK  161  A    between atoms: _401  and  _403
REMARK  162  A    between atoms: _403  and  _404
REMARK  163  A    between atoms: _403  and  _406
REMARK  164  A    between atoms: _406  and  _407
REMARK  165  A    between atoms: _410  and  _412
REMARK  166  A    between atoms: _412  and  _413
REMARK  167  A    between atoms: _412  and  _415
REMARK  168  A    between atoms: _415  and  _416
REMARK  169  A    between atoms: _418  and  _420
REMARK  170  A    between atoms: _420  and  _421
REMARK  171  A    between atoms: _423  and  _425
REMARK  172  A    between atoms: _425  and  _426
REMARK  173  A    between atoms: _425  and  _428
REMARK  174  A    between atoms: _428  and  _429
REMARK  175  A    between atoms: _434  and  _435
REMARK  176  A    between atoms: _437  and  _439
REMARK  177  A    between atoms: _439  and  _440
REMARK  178  A    between atoms: _439  and  _442
REMARK  179  A    between atoms: _442  and  _443
REMARK  180  A    between atoms: _443  and  _444
REMARK  181  A    between atoms: _449  and  _451
REMARK  182  A    between atoms: _451  and  _452
REMARK  183  A    between atoms: _451  and  _454
REMARK  184  A    between atoms: _454  and  _455
REMARK  185  A    between atoms: _455  and  _456
REMARK  186  A    between atoms: _461  and  _463
REMARK  187  A    between atoms: _463  and  _464
REMARK  188  A    between atoms: _463  and  _466
REMARK  189  A    between atoms: _466  and  _467
REMARK  190  A    between atoms: _472  and  _473
REMARK  191  A    between atoms: _475  and  _477
REMARK  192  A    between atoms: _477  and  _478
REMARK  193  A    between atoms: _481  and  _483
REMARK  194  A    between atoms: _483  and  _484
REMARK  195  A    between atoms: _483  and  _486
REMARK  196  A    between atoms: _486  and  _487
REMARK  197  A    between atoms: _492  and  _493
REMARK  198  A    between atoms: _495  and  _497
REMARK  199  A    between atoms: _497  and  _498
REMARK  200  A    between atoms: _497  and  _500
REMARK  201  A    between atoms: _500  and  _501
REMARK  202  A    between atoms: _506  and  _507
REMARK  203  A    between atoms: _509  and  _511
REMARK  204  A    between atoms: _511  and  _512
REMARK  205  A    between atoms: _511  and  _514
REMARK  206  A    between atoms: _514  and  _515
REMARK  207  A    between atoms: _518  and  _520
REMARK  208  A    between atoms: _520  and  _521
REMARK  209  A    between atoms: _520  and  _523
REMARK  210  A    between atoms: _523  and  _524
REMARK  211  A    between atoms: _534  and  _536
REMARK  212  A    between atoms: _536  and  _537
REMARK  213  A    between atoms: _540  and  _542
REMARK  214  A    between atoms: _542  and  _543
REMARK  215  A    between atoms: _546  and  _548
REMARK  216  A    between atoms: _548  and  _549
REMARK  217  A    between atoms: _548  and  _551
REMARK  218  A    between atoms: _551  and  _552
REMARK  219  A    between atoms: _555  and  _557
REMARK  220  A    between atoms: _557  and  _558
REMARK  221  A    between atoms: _557  and  _560
REMARK  222  A    between atoms: _560  and  _561
REMARK  223  A    between atoms: _564  and  _566
REMARK  224  A    between atoms: _566  and  _567
REMARK  225  A    between atoms: _566  and  _569
REMARK  226  A    between atoms: _569  and  _570
REMARK  227  A    between atoms: _573  and  _575
REMARK  228  A    between atoms: _575  and  _576
REMARK  229  A    between atoms: _575  and  _578
REMARK  230  A    between atoms: _578  and  _579
REMARK  231  A    between atoms: _579  and  _580
REMARK  232  A    between atoms: _580  and  _581
REMARK  233  A    between atoms: _581  and  _582
REMARK  234  A    between atoms: _586  and  _588
REMARK  235  A    between atoms: _588  and  _589
REMARK  236  A    between atoms: _588  and  _591
REMARK  237  A    between atoms: _591  and  _592
REMARK  238  A    between atoms: _597  and  _599
REMARK  239  A    between atoms: _599  and  _600
REMARK  240  A    between atoms: _599  and  _602
REMARK  241  A    between atoms: _602  and  _603
REMARK  242  A    between atoms: _603  and  _604
REMARK  243  A    between atoms: _604  and  _605
REMARK  244  A    between atoms: _605  and  _606
REMARK  245  A    between atoms: _610  and  _612
REMARK  246  A    between atoms: _612  and  _613
REMARK  247  A    between atoms: _612  and  _615
REMARK  248  A    between atoms: _615  and  _616
REMARK  249  A    between atoms: _626  and  _628
REMARK  250  A    between atoms: _628  and  _629
REMARK  251  A    between atoms: _628  and  _631
REMARK  252  A    between atoms: _631  and  _632
REMARK  253  A    between atoms: _632  and  _633
REMARK  254  A    between atoms: _636  and  _638
REMARK  255  A    between atoms: _638  and  _639
REMARK  256  A    between atoms: _642  and  _644
REMARK  257  A    between atoms: _644  and  _645
REMARK  258  A    between atoms: _647  and  _649
REMARK  259  A    between atoms: _649  and  _650
REMARK  260  A    between atoms: _649  and  _652
REMARK  261  A    between atoms: _652  and  _653
REMARK  262  A    between atoms: _653  and  _654
REMARK  263  A    between atoms: _657  and  _659
REMARK  264  A    between atoms: _659  and  _660
REMARK  265  A    between atoms: _663  and  _665
REMARK  266  A    between atoms: _665  and  _666
REMARK  267  A    between atoms: _665  and  _668
REMARK  268  A    between atoms: _668  and  _669
REMARK  269  A    between atoms: _669  and  _670
REMARK  270  A    between atoms: _673  and  _675
REMARK  271  A    between atoms: _675  and  _676
REMARK  272  A    between atoms: _675  and  _678
REMARK  273  A    between atoms: _678  and  _679
REMARK  274  A    between atoms: _679  and  _680
REMARK  275  A    between atoms: _680  and  _681
REMARK  276  A    between atoms: _690  and  _692
REMARK  277  A    between atoms: _692  and  _693
REMARK  278  A    between atoms: _692  and  _695
REMARK  279  A    between atoms: _695  and  _696
REMARK  280  A    between atoms: _699  and  _701
REMARK  281  A    between atoms: _701  and  _702
REMARK  282  A    between atoms: _701  and  _704
REMARK  283  A    between atoms: _704  and  _705
REMARK  284  A    between atoms: _705  and  _706
REMARK  285  A    between atoms: _706  and  _707
REMARK  286  A    between atoms: _716  and  _718
REMARK  287  A    between atoms: _718  and  _719
REMARK  288  A    between atoms: _722  and  _724
REMARK  289  A    between atoms: _724  and  _725
REMARK  290  A    between atoms: _724  and  _727
REMARK  291  A    between atoms: _727  and  _728
REMARK  292  A    between atoms: _733  and  _734
REMARK  293  A    between atoms: _736  and  _738
REMARK  294  A    between atoms: _738  and  _739
REMARK  295  A    between atoms: _738  and  _741
REMARK  296  A    between atoms: _741  and  _742
REMARK  297  A    between atoms: _745  and  _747
REMARK  298  A    between atoms: _747  and  _748
REMARK  299  A    between atoms: _747  and  _750
REMARK  300  A    between atoms: _750  and  _751
REMARK  301  A    between atoms: _754  and  _756
REMARK  302  A    between atoms: _756  and  _757
REMARK  303  A    between atoms: _756  and  _759
REMARK  304  A    between atoms: _761  and  _763
REMARK  305  A    between atoms: _763  and  _764
REMARK  306  A    between atoms: _763  and  _766
REMARK  307  A    between atoms: _769  and  _771
REMARK  308  A    between atoms: _771  and  _772
REMARK  309  A    between atoms: _771  and  _774
REMARK  310  A    between atoms: _774  and  _775
REMARK  311  A    between atoms: _775  and  _776
REMARK  312  A    between atoms: _779  and  _781
REMARK  313  A    between atoms: _781  and  _782
REMARK  314  A    between atoms: _781  and  _784
REMARK  315  A    between atoms: _784  and  _785
REMARK  316  A    between atoms: _795  and  _797
REMARK  317  A    between atoms: _797  and  _798
REMARK  318  A    between atoms: _797  and  _800
REMARK  319  A    between atoms: _800  and  _801
REMARK  320  A    between atoms: _804  and  _806
REMARK  321  A    between atoms: _806  and  _807
REMARK  322  A    between atoms: _806  and  _809
REMARK  323  A    between atoms: _809  and  _810
REMARK  324  A    between atoms: _810  and  _811
REMARK  325  A    between atoms: _811  and  _812
REMARK  326  A    between atoms: _821  and  _823
REMARK  327  A    between atoms: _823  and  _824
REMARK  328  A    between atoms: _823  and  _826
REMARK  329  A    between atoms: _826  and  _827
REMARK  330  A    between atoms: _832  and  _833
REMARK                            x       y       z     vdW  Elec       q    Type
REMARK                         _______ _______ _______ _____ _____    ______ ____
ROOT
ATOM      1  C   ARG A   6      50.837  63.687  -8.501  0.00  0.00    +0.241 C 
ATOM      2  O   ARG A   6      51.294  63.655  -7.354  0.00  0.00    -0.273 OA
ATOM      3  N   LEU A   7      50.629  62.593  -9.224  0.00  0.00    -0.297 N 
ATOM      4  H   LEU A   7      50.261  62.681 -10.193  0.00  0.00    +0.150 HD
ENDROOT
BRANCH   1   5
ATOM      5  CA  ARG A   6      50.478  65.012  -9.177  0.00  0.00    +0.149 C 
BRANCH   5   8
ATOM      6  C   GLU A   5      52.321  65.056 -10.752  0.00  0.00    +0.241 C 
ATOM      7  O   GLU A   5      53.144  65.093  -9.836  0.00  0.00    -0.273 OA
ATOM      8  N   ARG A   6      51.007  65.028 -10.532  0.00  0.00    -0.297 N 
ATOM      9  H   ARG A   6      50.351  65.017 -11.339  0.00  0.00    +0.150 HD
BRANCH   6  10
ATOM     10  CA  GLU A   5      52.782  65.055 -12.207  0.00  0.00    +0.149 C 
BRANCH  10  13
ATOM     11  C   ALA A   4      51.971  62.874 -12.883  0.00  0.00    +0.241 C 
ATOM     12  O   ALA A   4      52.641  62.333 -12.006  0.00  0.00    -0.273 OA
ATOM     13  N   GLU A   5      51.965  64.192 -13.060  0.00  0.00    -0.297 N 
ATOM     14  H   GLU A   5      51.377  64.611 -13.808  0.00  0.00    +0.150 HD
BRANCH  11  15
ATOM     15  CA  ALA A   4      51.083  62.042 -13.809  0.00  0.00    +0.149 C 
ATOM     16  CB  ALA A   4      51.778  61.804 -15.143  0.00  0.00    +0.031 C 
BRANCH  15  19
ATOM     17  C   GLU A   3      49.016  62.998 -12.988  0.00  0.00    +0.241 C 
ATOM     18  O   GLU A   3      49.329  62.737 -11.836  0.00  0.00    -0.273 OA
ATOM     19  N   ALA A   4      49.796  62.703 -14.021  0.00  0.00    -0.297 N 
ATOM     20  H   ALA A   4      49.490  62.943 -14.986  0.00  0.00    +0.150 HD
BRANCH  17  21
ATOM     21  CA  GLU A   3      47.679  63.682 -13.283  0.00  0.00    +0.149 C 
BRANCH  21  24
ATOM     22  C   GLY A   2      48.425  65.833 -14.167  0.00  0.00    +0.243 C 
ATOM     23  O   GLY A   2      49.089  66.079 -13.151  0.00  0.00    -0.273 OA
ATOM     24  N   GLU A   3      47.738  64.704 -14.321  0.00  0.00    -0.297 N 
ATOM     25  H   GLU A   3      47.226  64.545 -15.212  0.00  0.00    +0.150 HD
BRANCH  22  26
ATOM     26  CA  GLY A   2      48.362  66.811 -15.331  0.00  0.00    +0.176 C 
BRANCH  26  29
ATOM     27  C   ALA A   1      45.984  67.272 -15.387  0.00  0.00    +0.238 C 
ATOM     28  O   ALA A   1      46.020  67.718 -14.243  0.00  0.00    -0.274 OA
ATOM     29  N   GLY A   2      47.066  66.807 -16.006  0.00  0.00    -0.296 N 
ATOM     30  H   GLY A   2      46.989  66.439 -16.976  0.00  0.00    +0.150 HD
BRANCH  27  31
ATOM     31  CA  ALA A   1      44.658  67.232 -16.148  0.00  0.00    +0.145 C 
ATOM     32  CB  ALA A   1      43.650  66.374 -15.378  0.00  0.00    +0.028 C 
BRANCH  31  33
ATOM     33  N   ALA A   1      44.753  66.765 -17.527  0.00  0.00    -0.238 NA
ATOM     34  H   ALA A   1      44.648  65.750 -17.728  0.00  0.00    +0.142 HD
ENDBRANCH  31  33
ENDBRANCH  27  31
ENDBRANCH  26  29
ENDBRANCH  22  26
ENDBRANCH  21  24
BRANCH  21  35
ATOM     35  CB  GLU A   3      46.617  62.636 -13.666  0.00  0.00    +0.041 C 
BRANCH  35  36
ATOM     36  CG  GLU A   3      46.460  61.461 -12.708  0.00  0.00    +0.116 C 
BRANCH  36  37
ATOM     37  CD  GLU A   3      46.117  61.876 -11.297  0.00  0.00    +0.365 C 
ATOM     38  OE2 GLU A   3      46.397  61.091 -10.366  0.00  0.00    -0.246 OA
ATOM     39  OE1 GLU A   3      45.555  62.980 -11.111  0.00  0.00    -0.246 OA
ENDBRANCH  36  37
ENDBRANCH  35  36
ENDBRANCH  21  35
ENDBRANCH  17  21
ENDBRANCH  15  19
ENDBRANCH  11  15
ENDBRANCH  10  13
BRANCH  10  40
ATOM     40  CB  GLU A   5      52.794  66.489 -12.742  0.00  0.00    +0.041 C 
BRANCH  40  41
ATOM     41  CG  GLU A   5      53.652  66.679 -13.978  0.00  0.00    +0.116 C 
BRANCH  41  42
ATOM     42  CD  GLU A   5      53.733  68.135 -14.401  0.00  0.00    +0.365 C 
ATOM     43  OE2 GLU A   5      54.095  68.980 -13.552  0.00  0.00    -0.246 OA
ATOM     44  OE1 GLU A   5      53.434  68.432 -15.578  0.00  0.00    -0.246 OA
ENDBRANCH  41  42
ENDBRANCH  40  41
ENDBRANCH  10  40
ENDBRANCH   6  10
ENDBRANCH   5   8
BRANCH   5  45
ATOM     45  CB  ARG A   6      48.944  65.183  -9.188  0.00  0.00    +0.033 C 
BRANCH  45  46
ATOM     46  CG  ARG A   6      48.342  65.353  -7.793  0.00  0.00    +0.045 C 
BRANCH  46  47
ATOM     47  CD  ARG A   6      46.871  65.780  -7.850  0.00  0.00    +0.174 C 
BRANCH  47  48
ATOM     48  NE  ARG A   6      46.003  64.721  -8.364  0.00  0.00    -0.265 N 
ATOM     49  CZ  ARG A   6      45.377  63.822  -7.607  0.00  0.00    +0.342 C 
ATOM     50  NH2 ARG A   6      45.505  63.838  -6.287  0.00  0.00    -0.292 N 
ATOM     51 HH21 ARG A   6      45.010  63.130  -5.708  0.00  0.00    +0.255 HD
ATOM     52 HH22 ARG A   6      46.100  64.559  -5.831  0.00  0.00    +0.255 HD
ATOM     53  NH1 ARG A   6      44.624  62.894  -8.181  0.00  0.00    -0.292 N 
ATOM     54 HH11 ARG A   6      44.132  62.189  -7.596  0.00  0.00    +0.255 HD
ATOM     55 HH12 ARG A   6      44.525  62.871  -9.216  0.00  0.00    +0.255 HD
ATOM     56  HE  ARG A   6      45.865  64.666  -9.393  0.00  0.00    +0.259 HD
ENDBRANCH  47  48
ENDBRANCH  46  47
ENDBRANCH  45  46
ENDBRANCH   5  45
ENDBRANCH   1   5
BRANCH   3  57
ATOM     57  CA  LEU A   7      50.909  61.273  -8.679  0.00  0.00    +0.149 C 
BRANCH  57  58
ATOM     58  C   LEU A   7      52.391  61.091  -8.366  0.00  0.00    +0.241 C 
ATOM     59  O   LEU A   7      52.741  60.586  -7.304  0.00  0.00    -0.273 OA
ATOM     60  N   ARG A   8      53.253  61.503  -9.288  0.00  0.00    -0.297 N 
ATOM     61  H   ARG A   8      52.897  61.919 -10.172  0.00  0.00    +0.150 HD
BRANCH  60  62
ATOM     62  CA  ARG A   8      54.694  61.381  -9.080  0.00  0.00    +0.149 C 
BRANCH  62  63
ATOM     63  C   ARG A   8      55.116  62.150  -7.829  0.00  0.00    +0.241 C 
ATOM     64  O   ARG A   8      55.934  61.672  -7.042  0.00  0.00    -0.273 OA
ATOM     65  N   ALA A   9      54.550  63.339  -7.639  0.00  0.00    -0.297 N 
ATOM     66  H   ALA A   9      53.870  63.698  -8.339  0.00  0.00    +0.150 HD
BRANCH  65  67
ATOM     67  CA  ALA A   9      54.866  64.150  -6.465  0.00  0.00    +0.149 C 
ATOM     68  CB  ALA A   9      54.110  65.485  -6.525  0.00  0.00    +0.031 C 
BRANCH  67  69
ATOM     69  C   ALA A   9      54.491  63.389  -5.195  0.00  0.00    +0.241 C 
ATOM     70  O   ALA A   9      55.179  63.474  -4.182  0.00  0.00    -0.273 OA
ATOM     71  N   TYR A  10      53.384  62.649  -5.252  0.00  0.00    -0.297 N 
ATOM     72  H   TYR A  10      52.829  62.634  -6.131  0.00  0.00    +0.150 HD
BRANCH  71  73
ATOM     73  CA  TYR A  10      52.932  61.860  -4.112  0.00  0.00    +0.153 C 
BRANCH  73  74
ATOM     74  C   TYR A  10      53.867  60.673  -3.851  0.00  0.00    +0.241 C 
ATOM     75  O   TYR A  10      54.287  60.445  -2.721  0.00  0.00    -0.273 OA
ATOM     76  N   LEU A  11      54.177  59.925  -4.904  0.00  0.00    -0.298 N 
ATOM     77  H   LEU A  11      53.809  60.189  -5.840  0.00  0.00    +0.150 HD
BRANCH  76  78
ATOM     78  CA  LEU A  11      55.023  58.740  -4.778  0.00  0.00    +0.137 C 
BRANCH  78  79
ATOM     79  C   LEU A  11      56.436  59.059  -4.291  0.00  0.00    +0.227 C 
ATOM     80  O   LEU A  11      56.946  58.393  -3.391  0.00  0.00    -0.286 OA
ENDBRANCH  78  79
BRANCH  78  81
ATOM     81  CB  LEU A  11      55.076  57.987  -6.113  0.00  0.00    +0.028 C 
BRANCH  81  82
ATOM     82  CG  LEU A  11      53.742  57.421  -6.629  0.00  0.00    +0.002 C 
ATOM     83  CD2 LEU A  11      53.244  56.319  -5.683  0.00  0.00    +0.000 C 
ATOM     84  CD1 LEU A  11      53.903  56.893  -8.048  0.00  0.00    +0.000 C 
ENDBRANCH  81  82
ENDBRANCH  78  81
ENDBRANCH  76  78
ENDBRANCH  73  74
BRANCH  73  85
ATOM     85  CB  TYR A  10      51.512  61.324  -4.364  0.00  0.00    +0.055 C 
BRANCH  85  86
ATOM     86  CG  TYR A  10      51.084  60.211  -3.423  0.00  0.00    -0.020 A 
ATOM     87  CD2 TYR A  10      50.756  60.477  -2.097  0.00  0.00    -0.001 A 
ATOM     88  CE2 TYR A  10      50.394  59.456  -1.220  0.00  0.00    +0.036 A 
ATOM     89  CZ  TYR A  10      50.360  58.145  -1.678  0.00  0.00    +0.134 A 
ATOM     90  CE1 TYR A  10      50.677  57.854  -2.992  0.00  0.00    +0.036 A 
ATOM     91  CD1 TYR A  10      51.036  58.884  -3.859  0.00  0.00    -0.001 A 
BRANCH  89  92
ATOM     92  OH  TYR A  10      50.017  57.131  -0.817  0.00  0.00    -0.506 OA
ATOM     93  HH  TYR A  10      49.822  57.510   0.076  0.00  0.00    +0.292 HD
ENDBRANCH  89  92
ENDBRANCH  85  86
ENDBRANCH  73  85
ENDBRANCH  71  73
ENDBRANCH  67  69
ENDBRANCH  65  67
ENDBRANCH  62  63
BRANCH  62  94
ATOM     94  CB  ARG A   8      55.455  61.901 -10.304  0.00  0.00    +0.033 C 
BRANCH  94  95
ATOM     95  CG  ARG A   8      56.966  61.841 -10.140  0.00  0.00    +0.045 C 
BRANCH  95  96
ATOM     96  CD  ARG A   8      57.706  62.233 -11.409  0.00  0.00    +0.174 C 
BRANCH  96  97
ATOM     97  NE  ARG A   8      59.149  62.180 -11.189  0.00  0.00    -0.265 N 
ATOM     98  HE  ARG A   8      59.483  61.883 -10.250  0.00  0.00    +0.259 HD
ATOM     99  CZ  ARG A   8      60.065  62.484 -12.101  0.00  0.00    +0.342 C 
ATOM    100  NH2 ARG A   8      61.353  62.391 -11.794  0.00  0.00    -0.292 N 
ATOM    101 HH21 ARG A   8      61.640  62.081 -10.844  0.00  0.00    +0.255 HD
ATOM    102 HH22 ARG A   8      62.075  62.628 -12.504  0.00  0.00    +0.255 HD
ATOM    103  NH1 ARG A   8      59.702  62.873 -13.315  0.00  0.00    -0.292 N 
ATOM    104 HH11 ARG A   8      58.693  62.942 -13.559  0.00  0.00    +0.255 HD
ATOM    105 HH12 ARG A   8      60.426  63.109 -14.023  0.00  0.00    +0.255 HD
ENDBRANCH  96  97
ENDBRANCH  95  96
ENDBRANCH  94  95
ENDBRANCH  62  94
ENDBRANCH  60  62
ENDBRANCH  57  58
BRANCH  57 106
ATOM    106  CB  LEU A   7      50.426  60.193  -9.652  0.00  0.00    +0.029 C 
BRANCH 106 107
ATOM    107  CG  LEU A   7      50.686  58.733  -9.267  0.00  0.00    +0.002 C 
ATOM    108  CD2 LEU A   7      50.141  58.428  -7.881  0.00  0.00    +0.000 C 
ATOM    109  CD1 LEU A   7      50.049  57.831 -10.319  0.00  0.00    +0.000 C 
ENDBRANCH 106 107
ENDBRANCH  57 106
ENDBRANCH   3  57
TORSDOF 43
REMARK  Name = ../refined-set-2016/1fzm/1fzm_pocket.pdb
REMARK  330 active torsions:
REMARK  status: ('A' for Active; 'I' for Inactive)
REMARK    1  A    between atoms: _1  and  _3
REMARK    2  A    between atoms: _3  and  _4
REMARK    3  A    between atoms: _3  and  _6
REMARK    4  A    between atoms: _6  and  _7
REMARK    5  A    between atoms: _10  and  _12
REMARK    6  A    between atoms: _12  and  _13
REMARK    7  A    between atoms: _12  and  _15
REMARK    8  A    between atoms: _15  and  _16
REMARK    9  A    between atoms: _16  and  _17
REMARK   10  A    between atoms: _17  and  _18
REMARK   11  A    between atoms: _27  and  _29
REMARK   12  A    between atoms: _29  and  _30
REMARK   13  A    between atoms: _29  and  _32
REMARK   14  A    between atoms: _32  and  _33
REMARK   15  A    between atoms: _38  and  _39
REMARK   16  A    between atoms: _41  and  _43
REMARK   17  A    between atoms: _43  and  _44
REMARK   18  A    between atoms: _43  and  _46
REMARK   19  A    between atoms: _46  and  _47
REMARK   20  A    between atoms: _53  and  _55
REMARK   21  A    between atoms: _55  and  _56
REMARK   22  A    between atoms: _55  and  _58
REMARK   23  A    between atoms: _61  and  _63
REMARK   24  A    between atoms: _63  and  _64
REMARK   25  A    between atoms: _63  and  _66
REMARK   26  A    between atoms: _66  and  _67
REMARK   27  A    between atoms: _70  and  _72
REMARK   28  A    between atoms: _72  and  _73
REMARK   29  A    between atoms: _72  and  _75
REMARK   30  A    between atoms: _75  and  _76
REMARK   31  A    between atoms: _82  and  _84
REMARK   32  A    between atoms: _84  and  _85
REMARK   33  A    between atoms: _84  and  _87
REMARK   34  A    between atoms: _87  and  _88
REMARK   35  A    between atoms: _90  and  _92
REMARK   36  A    between atoms: _92  and  _93
REMARK   37  A    between atoms: _92  and  _95
REMARK   38  A    between atoms: _98  and  _100
REMARK   39  A    between atoms: _100  and  _101
REMARK   40  A    between atoms: _100  and  _103
REMARK   41  A    between atoms: _103  and  _104
REMARK   42  A    between atoms: _110  and  _112
REMARK   43  A    between atoms: _112  and  _113
REMARK   44  A    between atoms: _112  and  _115
REMARK   45  A    between atoms: _118  and  _120
REMARK   46  A    between atoms: _120  and  _121
REMARK   47  A    between atoms: _120  and  _123
REMARK   48  A    between atoms: _123  and  _124
REMARK   49  A    between atoms: _129  and  _130
REMARK   50  A    between atoms: _132  and  _134
REMARK   51  A    between atoms: _134  and  _135
REMARK   52  A    between atoms: _134  and  _137
REMARK   53  A    between atoms: _137  and  _138
REMARK   54  A    between atoms: _138  and  _139
REMARK   55  A    between atoms: _141  and  _143
REMARK   56  A    between atoms: _143  and  _144
REMARK   57  A    between atoms: _143  and  _146
REMARK   58  A    between atoms: _146  and  _147
REMARK   59  A    between atoms: _147  and  _148
REMARK   60  A    between atoms: _151  and  _153
REMARK   61  A    between atoms: _153  and  _154
REMARK   62  A    between atoms: _156  and  _158
REMARK   63  A    between atoms: _158  and  _159
REMARK   64  A    between atoms: _158  and  _161
REMARK   65  A    between atoms: _161  and  _162
REMARK   66  A    between atoms: _162  and  _163
REMARK   67  A    between atoms: _166  and  _168
REMARK   68  A    between atoms: _168  and  _169
REMARK   69  A    between atoms: _168  and  _171
REMARK   70  A    between atoms: _171  and  _172
REMARK   71  A    between atoms: _177  and  _178
REMARK   72  A    between atoms: _180  and  _182
REMARK   73  A    between atoms: _182  and  _183
REMARK   74  A    between atoms: _182  and  _185
REMARK   75  A    between atoms: _185  and  _186
REMARK   76  A    between atoms: _196  and  _198
REMARK   77  A    between atoms: _198  and  _199
REMARK   78  A    between atoms: _198  and  _201
REMARK   79  A    between atoms: _201  and  _202
REMARK   80  A    between atoms: _202  and  _203
REMARK   81  A    between atoms: _203  and  _204
REMARK   82  A    between atoms: _213  and  _215
REMARK   83  A    between atoms: _215  and  _216
REMARK   84  A    between atoms: _215  and  _218
REMARK   85  A    between atoms: _218  and  _219
REMARK   86  A    between atoms: _219  and  _220
REMARK   87  A    between atoms: _223  and  _225
REMARK   88  A    between atoms: _225  and  _226
REMARK   89  A    between atoms: _225  and  _228
REMARK   90  A    between atoms: _228  and  _229
REMARK   91  A    between atoms: _229  and  _230
REMARK   92  A    between atoms: _235  and  _237
REMARK   93  A    between atoms: _237  and  _238
REMARK   94  A    between atoms: _237  and  _240
REMARK   95  A    between atoms: _240  and  _241
REMARK   96  A    between atoms: _241  and  _242
REMARK   97  A    between atoms: _242  and  _243
REMARK   98  A    between atoms: _243  and  _244
REMARK   99  A    between atoms: _248  and  _250
REMARK  100  A    between atoms: _250  and  _251
REMARK  101  A    between atoms: _254  and  _256
REMARK  102  A    between atoms: _256  and  _257
REMARK  103  A    between atoms: _259  and  _261
REMARK  104  A    between atoms: _261  and  _262
REMARK  105  A    between atoms: _261  and  _264
REMARK  106  A    between atoms: _264  and  _265
REMARK  107  A    between atoms: _270  and  _272
REMARK  108  A    between atoms: _272  and  _273
REMARK  109  A    between atoms: _272  and  _275
REMARK  110  A    between atoms: _275  and  _276
REMARK  111  A    between atoms: _276  and  _277
REMARK  112  A    between atoms: _280  and  _282
REMARK  113  A    between atoms: _282  and  _283
REMARK  114  A    between atoms: _282  and  _285
REMARK  115  A    between atoms: _285  and  _286
REMARK  116  A    between atoms: _288  and  _290
REMARK  117  A    between atoms: _290  and  _291
REMARK  118  A    between atoms: _290  and  _293
REMARK  119  A    between atoms: _293  and  _294
REMARK  120  A    between atoms: _300  and  _302
REMARK  121  A    between atoms: _302  and  _303
REMARK  122  A    between atoms: _302  and  _305
REMARK  123  A    between atoms: _308  and  _310
REMARK  124  A    between atoms: _310  and  _311
REMARK  125  A    between atoms: _310  and  _313
REMARK  126  A    between atoms: _313  and  _314
REMARK  127  A    between atoms: _317  and  _319
REMARK  128  A    between atoms: _319  and  _320
REMARK  129  A    between atoms: _319  and  _322
REMARK  130  A    between atoms: _322  and  _323
REMARK  131  A    between atoms: _326  and  _328
REMARK  132  A    between atoms: _328  and  _329
REMARK  133  A    between atoms: _328  and  _331
REMARK  134  A    between atoms: _331  and  _332
REMARK  135  A    between atoms: _335  and  _337
REMARK  136  A    between atoms: _337  and  _338
REMARK  137  A    between atoms: _337  and  _340
REMARK  138  A    between atoms: _340  and  _341
REMARK  139  A    between atoms: _344  and  _346
REMARK  140  A    between atoms: _346  and  _347
REMARK  141  A    between atoms: _346  and  _349
REMARK  142  A    between atoms: _349  and  _350
REMARK  143  A    between atoms: _355  and  _356
REMARK  144  A    between atoms: _358  and  _360
REMARK  145  A    between atoms: _360  and  _361
REMARK  146  A    between atoms: _360  and  _363
REMARK  147  A    between atoms: _363  and  _364
REMARK  148  A    between atoms: _369  and  _370
REMARK  149  A    between atoms: _372  and  _374
REMARK  150  A    between atoms: _374  and  _375
REMARK  151  A    between atoms: _374  and  _377
REMARK  152  A    between atoms: _377  and  _378
REMARK  153  A    between atoms: _381  and  _383
REMARK  154  A    between atoms: _383  and  _384
REMARK  155  A    between atoms: _383  and  _386
REMARK  156  A    between atoms: _386  and  _387
REMARK  157  A    between atoms: _387  and  _388
REMARK  158  A    between atoms: _393  and  _395
REMARK  159  A    between atoms: _395  and  _396
REMARK  160  A    between atoms: _395  and  _398
REMARK  161  A    between atoms: _401  and  _403
REMARK  162  A    between atoms: _403  and  _404
REMARK  163  A    between atoms: _403  and  _406
REMARK  164  A    between atoms: _406  and  _407
REMARK  165  A    between atoms: _410  and  _412
REMARK  166  A    between atoms: _412  and  _413
REMARK  167  A    between atoms: _412  and  _415
REMARK  168  A    between atoms: _415  and  _416
REMARK  169  A    between atoms: _418  and  _420
REMARK  170  A    between atoms: _420  and  _421
REMARK  171  A    between atoms: _423  and  _425
REMARK  172  A    between atoms: _425  and  _426
REMARK  173  A    between atoms: _425  and  _428
REMARK  174  A    between atoms: _428  and  _429
REMARK  175  A    between atoms: _434  and  _435
REMARK  176  A    between atoms: _437  and  _439
REMARK  177  A    between atoms: _439  and  _440
REMARK  178  A    between atoms: _439  and  _442
REMARK  179  A    between atoms: _442  and  _443
REMARK  180  A    between atoms: _443  and  _444
REMARK  181  A    between atoms: _449  and  _451
REMARK  182  A    between atoms: _451  and  _452
REMARK  183  A    between atoms: _451  and  _454
REMARK  184  A    between atoms: _454  and  _455
REMARK  185  A    between atoms: _455  and  _456
REMARK  186  A    between atoms: _461  and  _463
REMARK  187  A    between atoms: _463  and  _464
REMARK  188  A    between atoms: _463  and  _466
REMARK  189  A    between atoms: _466  and  _467
REMARK  190  A    between atoms: _472  and  _473
REMARK  191  A    between atoms: _475  and  _477
REMARK  192  A    between atoms: _477  and  _478
REMARK  193  A    between atoms: _481  and  _483
REMARK  194  A    between atoms: _483  and  _484
REMARK  195  A    between atoms: _483  and  _486
REMARK  196  A    between atoms: _486  and  _487
REMARK  197  A    between atoms: _492  and  _493
REMARK  198  A    between atoms: _495  and  _497
REMARK  199  A    between atoms: _497  and  _498
REMARK  200  A    between atoms: _497  and  _500
REMARK  201  A    between atoms: _500  and  _501
REMARK  202  A    between atoms: _506  and  _507
REMARK  203  A    between atoms: _509  and  _511
REMARK  204  A    between atoms: _511  and  _512
REMARK  205  A    between atoms: _511  and  _514
REMARK  206  A    between atoms: _514  and  _515
REMARK  207  A    between atoms: _518  and  _520
REMARK  208  A    between atoms: _520  and  _521
REMARK  209  A    between atoms: _520  and  _523
REMARK  210  A    between atoms: _523  and  _524
REMARK  211  A    between atoms: _534  and  _536
REMARK  212  A    between atoms: _536  and  _537
REMARK  213  A    between atoms: _540  and  _542
REMARK  214  A    between atoms: _542  and  _543
REMARK  215  A    between atoms: _546  and  _548
REMARK  216  A    between atoms: _548  and  _549
REMARK  217  A    between atoms: _548  and  _551
REMARK  218  A    between atoms: _551  and  _552
REMARK  219  A    between atoms: _555  and  _557
REMARK  220  A    between atoms: _557  and  _558
REMARK  221  A    between atoms: _557  and  _560
REMARK  222  A    between atoms: _560  and  _561
REMARK  223  A    between atoms: _564  and  _566
REMARK  224  A    between atoms: _566  and  _567
REMARK  225  A    between atoms: _566  and  _569
REMARK  226  A    between atoms: _569  and  _570
REMARK  227  A    between atoms: _573  and  _575
REMARK  228  A    between atoms: _575  and  _576
REMARK  229  A    between atoms: _575  and  _578
REMARK  230  A    between atoms: _578  and  _579
REMARK  231  A    between atoms: _579  and  _580
REMARK  232  A    between atoms: _580  and  _581
REMARK  233  A    between atoms: _581  and  _582
REMARK  234  A    between atoms: _586  and  _588
REMARK  235  A    between atoms: _588  and  _589
REMARK  236  A    between atoms: _588  and  _591
REMARK  237  A    between atoms: _591  and  _592
REMARK  238  A    between atoms: _597  and  _599
REMARK  239  A    between atoms: _599  and  _600
REMARK  240  A    between atoms: _599  and  _602
REMARK  241  A    between atoms: _602  and  _603
REMARK  242  A    between atoms: _603  and  _604
REMARK  243  A    between atoms: _604  and  _605
REMARK  244  A    between atoms: _605  and  _606
REMARK  245  A    between atoms: _610  and  _612
REMARK  246  A    between atoms: _612  and  _613
REMARK  247  A    between atoms: _612  and  _615
REMARK  248  A    between atoms: _615  and  _616
REMARK  249  A    between atoms: _626  and  _628
REMARK  250  A    between atoms: _628  and  _629
REMARK  251  A    between atoms: _628  and  _631
REMARK  252  A    between atoms: _631  and  _632
REMARK  253  A    between atoms: _632  and  _633
REMARK  254  A    between atoms: _636  and  _638
REMARK  255  A    between atoms: _638  and  _639
REMARK  256  A    between atoms: _642  and  _644
REMARK  257  A    between atoms: _644  and  _645
REMARK  258  A    between atoms: _647  and  _649
REMARK  259  A    between atoms: _649  and  _650
REMARK  260  A    between atoms: _649  and  _652
REMARK  261  A    between atoms: _652  and  _653
REMARK  262  A    between atoms: _653  and  _654
REMARK  263  A    between atoms: _657  and  _659
REMARK  264  A    between atoms: _659  and  _660
REMARK  265  A    between atoms: _663  and  _665
REMARK  266  A    between atoms: _665  and  _666
REMARK  267  A    between atoms: _665  and  _668
REMARK  268  A    between atoms: _668  and  _669
REMARK  269  A    between atoms: _669  and  _670
REMARK  270  A    between atoms: _673  and  _675
REMARK  271  A    between atoms: _675  and  _676
REMARK  272  A    between atoms: _675  and  _678
REMARK  273  A    between atoms: _678  and  _679
REMARK  274  A    between atoms: _679  and  _680
REMARK  275  A    between atoms: _680  and  _681
REMARK  276  A    between atoms: _690  and  _692
REMARK  277  A    between atoms: _692  and  _693
REMARK  278  A    between atoms: _692  and  _695
REMARK  279  A    between atoms: _695  and  _696
REMARK  280  A    between atoms: _699  and  _701
REMARK  281  A    between atoms: _701  and  _702
REMARK  282  A    between atoms: _701  and  _704
REMARK  283  A    between atoms: _704  and  _705
REMARK  284  A    between atoms: _705  and  _706
REMARK  285  A    between atoms: _706  and  _707
REMARK  286  A    between atoms: _716  and  _718
REMARK  287  A    between atoms: _718  and  _719
REMARK  288  A    between atoms: _722  and  _724
REMARK  289  A    between atoms: _724  and  _725
REMARK  290  A    between atoms: _724  and  _727
REMARK  291  A    between atoms: _727  and  _728
REMARK  292  A    between atoms: _733  and  _734
REMARK  293  A    between atoms: _736  and  _738
REMARK  294  A    between atoms: _738  and  _739
REMARK  295  A    between atoms: _738  and  _741
REMARK  296  A    between atoms: _741  and  _742
REMARK  297  A    between atoms: _745  and  _747
REMARK  298  A    between atoms: _747  and  _748
REMARK  299  A    between atoms: _747  and  _750
REMARK  300  A    between atoms: _750  and  _751
REMARK  301  A    between atoms: _754  and  _756
REMARK  302  A    between atoms: _756  and  _757
REMARK  303  A    between atoms: _756  and  _759
REMARK  304  A    between atoms: _761  and  _763
REMARK  305  A    between atoms: _763  and  _764
REMARK  306  A    between atoms: _763  and  _766
REMARK  307  A    between atoms: _769  and  _771
REMARK  308  A    between atoms: _771  and  _772
REMARK  309  A    between atoms: _771  and  _774
REMARK  310  A    between atoms: _774  and  _775
REMARK  311  A    between atoms: _775  and  _776
REMARK  312  A    between atoms: _779  and  _781
REMARK  313  A    between atoms: _781  and  _782
REMARK  314  A    between atoms: _781  and  _784
REMARK  315  A    between atoms: _784  and  _785
REMARK  316  A    between atoms: _795  and  _797
REMARK  317  A    between atoms: _797  and  _798
REMARK  318  A    between atoms: _797  and  _800
REMARK  319  A    between atoms: _800  and  _801
REMARK  320  A    between atoms: _804  and  _806
REMARK  321  A    between atoms: _806  and  _807
REMARK  322  A    between atoms: _806  and  _809
REMARK  323  A    between atoms: _809  and  _810
REMARK  324  A    between atoms: _810  and  _811
REMARK  325  A    between atoms: _811  and  _812
REMARK  326  A    between atoms: _821  and  _823
REMARK  327  A    between atoms: _823  and  _824
REMARK  328  A    between atoms: _823  and  _826
REMARK  329  A    between atoms: _826  and  _827
REMARK  330  A    between atoms: _832  and  _833
REMARK                            x       y       z     vdW  Elec       q    Type
REMARK                         _______ _______ _______ _____ _____    ______ ____
ROOT
ATOM      1  CA  GLU A   4      58.261  60.374   3.886  0.00  0.00    +0.149 C 
ENDROOT
BRANCH   1   4
ATOM      2  C   VAL A   3      58.523  58.533   2.330  0.00  0.00    +0.241 C 
ATOM      3  O   VAL A   3      58.981  57.817   3.215  0.00  0.00    -0.273 OA
ATOM      4  N   GLU A   4      58.133  59.785   2.562  0.00  0.00    -0.297 N 
ATOM      5  H   GLU A   4      57.731  60.349   1.786  0.00  0.00    +0.150 HD
BRANCH   2   6
ATOM      6  CA  VAL A   3      58.370  58.012   0.903  0.00  0.00    +0.149 C 
BRANCH   6   9
ATOM      7  C   CYS A   2      55.948  57.782   0.880  0.00  0.00    +0.242 C 
ATOM      8  O   CYS A   2      55.971  57.057   1.881  0.00  0.00    -0.273 OA
ATOM      9  N   VAL A   3      57.050  58.292   0.337  0.00  0.00    -0.297 N 
ATOM     10  H   VAL A   3      56.972  58.900  -0.503  0.00  0.00    +0.150 HD
BRANCH   7  11
ATOM     11  CA  CYS A   2      54.624  58.151   0.198  0.00  0.00    +0.160 C 
BRANCH  11  14
ATOM     12  C   THR A   1      54.595  60.458   1.006  0.00  0.00    +0.241 C 
ATOM     13  O   THR A   1      54.771  60.108   2.175  0.00  0.00    -0.274 OA
ATOM     14  N   CYS A   2      54.510  59.601  -0.002  0.00  0.00    -0.296 N 
ATOM     15  H   CYS A   2      54.358  59.967  -0.964  0.00  0.00    +0.150 HD
BRANCH  12  16
ATOM     16  CA  THR A   1      54.432  61.939   0.654  0.00  0.00    +0.172 C 
BRANCH  16  17
ATOM     17  CB  THR A   1      52.947  62.173   0.303  0.00  0.00    +0.135 C 
ATOM     18  CG2 THR A   1      52.052  61.712   1.442  0.00  0.00    +0.034 C 
BRANCH  17  19
ATOM     19  OG1 THR A   1      52.729  63.569   0.056  0.00  0.00    -0.383 OA
ATOM     20  HG1 THR A   1      51.777  63.718  -0.169  0.00  0.00    +0.210 HD
ENDBRANCH  17  19
ENDBRANCH  16  17
BRANCH  16  21
ATOM     21  N   THR A   1      55.298  62.423  -0.418  0.00  0.00    -0.236 NA
ATOM     22  H   THR A   1      54.875  62.984  -1.185  0.00  0.00    +0.142 HD
ENDBRANCH  16  21
ENDBRANCH  12  16
ENDBRANCH  11  14
BRANCH  11  23
ATOM     23  CB  CYS A   2      54.510  57.426  -1.151  0.00  0.00    +0.098 C 
ATOM     24  SG  CYS A   2      53.756  55.760  -1.023  0.00  0.00    -0.080 S 
ENDBRANCH  11  23
ENDBRANCH   7  11
ENDBRANCH   6   9
BRANCH   6  25
ATOM     25  CB  VAL A   3      59.497  58.612   0.009  0.00  0.00    +0.027 C 
ATOM     26  CG2 VAL A   3      60.827  58.599   0.752  0.00  0.00    +0.002 C 
ATOM     27  CG1 VAL A   3      59.613  57.821  -1.281  0.00  0.00    +0.002 C 
ENDBRANCH   6  25
ENDBRANCH   2   6
ENDBRANCH   1   4
BRANCH   1  28
ATOM     28  C   GLU A   4      57.437  59.687   4.963  0.00  0.00    +0.241 C 
ATOM     29  O   GLU A   4      57.906  59.512   6.089  0.00  0.00    -0.273 OA
ATOM     30  N   TRP A   5      56.207  59.298   4.640  0.00  0.00    -0.297 N 
ATOM     31  H   TRP A   5      55.832  59.467   3.685  0.00  0.00    +0.150 HD
BRANCH  30  32
ATOM     32  CA  TRP A   5      55.399  58.634   5.645  0.00  0.00    +0.153 C 
BRANCH  32  33
ATOM     33  C   TRP A   5      55.847  57.187   5.873  0.00  0.00    +0.241 C 
ATOM     34  O   TRP A   5      55.775  56.694   6.991  0.00  0.00    -0.273 OA
ATOM     35  N   LEU A   6      56.321  56.511   4.832  0.00  0.00    -0.298 N 
ATOM     36  H   LEU A   6      56.339  56.946   3.888  0.00  0.00    +0.150 HD
BRANCH  35  37
ATOM     37  CA  LEU A   6      56.818  55.146   5.027  0.00  0.00    +0.137 C 
BRANCH  37  38
ATOM     38  C   LEU A   6      57.982  55.198   6.038  0.00  0.00    +0.227 C 
ATOM     39  O   LEU A   6      58.045  54.400   6.969  0.00  0.00    -0.286 OA
ENDBRANCH  37  38
BRANCH  37  40
ATOM     40  CB  LEU A   6      57.282  54.543   3.696  0.00  0.00    +0.028 C 
BRANCH  40  41
ATOM     41  CG  LEU A   6      58.086  53.230   3.748  0.00  0.00    +0.002 C 
ATOM     42  CD2 LEU A   6      57.320  52.165   4.534  0.00  0.00    +0.000 C 
ATOM     43  CD1 LEU A   6      58.360  52.770   2.329  0.00  0.00    +0.000 C 
ENDBRANCH  40  41
ENDBRANCH  37  40
ENDBRANCH  35  37
ENDBRANCH  32  33
BRANCH  32  44
ATOM     44  CB  TRP A   5      53.905  58.744   5.297  0.00  0.00    +0.057 C 
BRANCH  44  45
ATOM     45  CG  TRP A   5      53.381  60.121   5.656  0.00  0.00    -0.002 A 
ATOM     46  CD2 TRP A   5      52.806  60.519   6.910  0.00  0.00    +0.013 A 
ATOM     47  CE3 TRP A   5      52.454  59.831   8.080  0.00  0.00    +0.001 A 
ATOM     48  CZ3 TRP A   5      51.902  60.553   9.148  0.00  0.00    +0.000 A 
ATOM     49  CH2 TRP A   5      51.704  61.944   9.053  0.00  0.00    +0.001 A 
ATOM     50  CZ2 TRP A   5      52.042  62.641   7.918  0.00  0.00    +0.017 A 
ATOM     51  CE2 TRP A   5      52.592  61.920   6.851  0.00  0.00    +0.056 A 
ATOM     52  NE1 TRP A   5      53.010  62.348   5.619  0.00  0.00    -0.352 N 
ATOM     53  HE1 TRP A   5      52.978  63.330   5.277  0.00  0.00    +0.166 HD
ATOM     54  CD1 TRP A   5      53.482  61.262   4.904  0.00  0.00    +0.068 A 
ENDBRANCH  44  45
ENDBRANCH  32  44
ENDBRANCH  30  32
ENDBRANCH   1  28
BRANCH   1  55
ATOM     55  CB  GLU A   4      57.922  61.869   3.823  0.00  0.00    +0.041 C 
BRANCH  55  56
ATOM     56  CG  GLU A   4      59.046  62.694   3.201  0.00  0.00    +0.116 C 
BRANCH  56  57
ATOM     57  CD  GLU A   4      58.588  64.048   2.691  0.00  0.00    +0.365 C 
ATOM     58  OE2 GLU A   4      57.711  64.672   3.336  0.00  0.00    -0.246 OA
ATOM     59  OE1 GLU A   4      59.119  64.488   1.644  0.00  0.00    -0.246 OA
ENDBRANCH  56  57
ENDBRANCH  55  56
ENDBRANCH   1  55
TORSDOF 23
REMARK  Name = ../refined-set-2016/1fzm/1fzm_pocket.pdb
REMARK  330 active torsions:
REMARK  status: ('A' for Active; 'I' for Inactive)
REMARK    1  A    between atoms: _1  and  _3
REMARK    2  A    between atoms: _3  and  _4
REMARK    3  A    between atoms: _3  and  _6
REMARK    4  A    between atoms: _6  and  _7
REMARK    5  A    between atoms: _10  and  _12
REMARK    6  A    between atoms: _12  and  _13
REMARK    7  A    between atoms: _12  and  _15
REMARK    8  A    between atoms: _15  and  _16
REMARK    9  A    between atoms: _16  and  _17
REMARK   10  A    between atoms: _17  and  _18
REMARK   11  A    between atoms: _27  and  _29
REMARK   12  A    between atoms: _29  and  _30
REMARK   13  A    between atoms: _29  and  _32
REMARK   14  A    between atoms: _32  and  _33
REMARK   15  A    between atoms: _38  and  _39
REMARK   16  A    between atoms: _41  and  _43
REMARK   17  A    between atoms: _43  and  _44
REMARK   18  A    between atoms: _43  and  _46
REMARK   19  A    between atoms: _46  and  _47
REMARK   20  A    between atoms: _53  and  _55
REMARK   21  A    between atoms: _55  and  _56
REMARK   22  A    between atoms: _55  and  _58
REMARK   23  A    between atoms: _61  and  _63
REMARK   24  A    between atoms: _63  and  _64
REMARK   25  A    between atoms: _63  and  _66
REMARK   26  A    between atoms: _66  and  _67
REMARK   27  A    between atoms: _70  and  _72
REMARK   28  A    between atoms: _72  and  _73
REMARK   29  A    between atoms: _72  and  _75
REMARK   30  A    between atoms: _75  and  _76
REMARK   31  A    between atoms: _82  and  _84
REMARK   32  A    between atoms: _84  and  _85
REMARK   33  A    between atoms: _84  and  _87
REMARK   34  A    between atoms: _87  and  _88
REMARK   35  A    between atoms: _90  and  _92
REMARK   36  A    between atoms: _92  and  _93
REMARK   37  A    between atoms: _92  and  _95
REMARK   38  A    between atoms: _98  and  _100
REMARK   39  A    between atoms: _100  and  _101
REMARK   40  A    between atoms: _100  and  _103
REMARK   41  A    between atoms: _103  and  _104
REMARK   42  A    between atoms: _110  and  _112
REMARK   43  A    between atoms: _112  and  _113
REMARK   44  A    between atoms: _112  and  _115
REMARK   45  A    between atoms: _118  and  _120
REMARK   46  A    between atoms: _120  and  _121
REMARK   47  A    between atoms: _120  and  _123
REMARK   48  A    between atoms: _123  and  _124
REMARK   49  A    between atoms: _129  and  _130
REMARK   50  A    between atoms: _132  and  _134
REMARK   51  A    between atoms: _134  and  _135
REMARK   52  A    between atoms: _134  and  _137
REMARK   53  A    between atoms: _137  and  _138
REMARK   54  A    between atoms: _138  and  _139
REMARK   55  A    between atoms: _141  and  _143
REMARK   56  A    between atoms: _143  and  _144
REMARK   57  A    between atoms: _143  and  _146
REMARK   58  A    between atoms: _146  and  _147
REMARK   59  A    between atoms: _147  and  _148
REMARK   60  A    between atoms: _151  and  _153
REMARK   61  A    between atoms: _153  and  _154
REMARK   62  A    between atoms: _156  and  _158
REMARK   63  A    between atoms: _158  and  _159
REMARK   64  A    between atoms: _158  and  _161
REMARK   65  A    between atoms: _161  and  _162
REMARK   66  A    between atoms: _162  and  _163
REMARK   67  A    between atoms: _166  and  _168
REMARK   68  A    between atoms: _168  and  _169
REMARK   69  A    between atoms: _168  and  _171
REMARK   70  A    between atoms: _171  and  _172
REMARK   71  A    between atoms: _177  and  _178
REMARK   72  A    between atoms: _180  and  _182
REMARK   73  A    between atoms: _182  and  _183
REMARK   74  A    between atoms: _182  and  _185
REMARK   75  A    between atoms: _185  and  _186
REMARK   76  A    between atoms: _196  and  _198
REMARK   77  A    between atoms: _198  and  _199
REMARK   78  A    between atoms: _198  and  _201
REMARK   79  A    between atoms: _201  and  _202
REMARK   80  A    between atoms: _202  and  _203
REMARK   81  A    between atoms: _203  and  _204
REMARK   82  A    between atoms: _213  and  _215
REMARK   83  A    between atoms: _215  and  _216
REMARK   84  A    between atoms: _215  and  _218
REMARK   85  A    between atoms: _218  and  _219
REMARK   86  A    between atoms: _219  and  _220
REMARK   87  A    between atoms: _223  and  _225
REMARK   88  A    between atoms: _225  and  _226
REMARK   89  A    between atoms: _225  and  _228
REMARK   90  A    between atoms: _228  and  _229
REMARK   91  A    between atoms: _229  and  _230
REMARK   92  A    between atoms: _235  and  _237
REMARK   93  A    between atoms: _237  and  _238
REMARK   94  A    between atoms: _237  and  _240
REMARK   95  A    between atoms: _240  and  _241
REMARK   96  A    between atoms: _241  and  _242
REMARK   97  A    between atoms: _242  and  _243
REMARK   98  A    between atoms: _243  and  _244
REMARK   99  A    between atoms: _248  and  _250
REMARK  100  A    between atoms: _250  and  _251
REMARK  101  A    between atoms: _254  and  _256
REMARK  102  A    between atoms: _256  and  _257
REMARK  103  A    between atoms: _259  and  _261
REMARK  104  A    between atoms: _261  and  _262
REMARK  105  A    between atoms: _261  and  _264
REMARK  106  A    between atoms: _264  and  _265
REMARK  107  A    between atoms: _270  and  _272
REMARK  108  A    between atoms: _272  and  _273
REMARK  109  A    between atoms: _272  and  _275
REMARK  110  A    between atoms: _275  and  _276
REMARK  111  A    between atoms: _276  and  _277
REMARK  112  A    between atoms: _280  and  _282
REMARK  113  A    between atoms: _282  and  _283
REMARK  114  A    between atoms: _282  and  _285
REMARK  115  A    between atoms: _285  and  _286
REMARK  116  A    between atoms: _288  and  _290
REMARK  117  A    between atoms: _290  and  _291
REMARK  118  A    between atoms: _290  and  _293
REMARK  119  A    between atoms: _293  and  _294
REMARK  120  A    between atoms: _300  and  _302
REMARK  121  A    between atoms: _302  and  _303
REMARK  122  A    between atoms: _302  and  _305
REMARK  123  A    between atoms: _308  and  _310
REMARK  124  A    between atoms: _310  and  _311
REMARK  125  A    between atoms: _310  and  _313
REMARK  126  A    between atoms: _313  and  _314
REMARK  127  A    between atoms: _317  and  _319
REMARK  128  A    between atoms: _319  and  _320
REMARK  129  A    between atoms: _319  and  _322
REMARK  130  A    between atoms: _322  and  _323
REMARK  131  A    between atoms: _326  and  _328
REMARK  132  A    between atoms: _328  and  _329
REMARK  133  A    between atoms: _328  and  _331
REMARK  134  A    between atoms: _331  and  _332
REMARK  135  A    between atoms: _335  and  _337
REMARK  136  A    between atoms: _337  and  _338
REMARK  137  A    between atoms: _337  and  _340
REMARK  138  A    between atoms: _340  and  _341
REMARK  139  A    between atoms: _344  and  _346
REMARK  140  A    between atoms: _346  and  _347
REMARK  141  A    between atoms: _346  and  _349
REMARK  142  A    between atoms: _349  and  _350
REMARK  143  A    between atoms: _355  and  _356
REMARK  144  A    between atoms: _358  and  _360
REMARK  145  A    between atoms: _360  and  _361
REMARK  146  A    between atoms: _360  and  _363
REMARK  147  A    between atoms: _363  and  _364
REMARK  148  A    between atoms: _369  and  _370
REMARK  149  A    between atoms: _372  and  _374
REMARK  150  A    between atoms: _374  and  _375
REMARK  151  A    between atoms: _374  and  _377
REMARK  152  A    between atoms: _377  and  _378
REMARK  153  A    between atoms: _381  and  _383
REMARK  154  A    between atoms: _383  and  _384
REMARK  155  A    between atoms: _383  and  _386
REMARK  156  A    between atoms: _386  and  _387
REMARK  157  A    between atoms: _387  and  _388
REMARK  158  A    between atoms: _393  and  _395
REMARK  159  A    between atoms: _395  and  _396
REMARK  160  A    between atoms: _395  and  _398
REMARK  161  A    between atoms: _401  and  _403
REMARK  162  A    between atoms: _403  and  _404
REMARK  163  A    between atoms: _403  and  _406
REMARK  164  A    between atoms: _406  and  _407
REMARK  165  A    between atoms: _410  and  _412
REMARK  166  A    between atoms: _412  and  _413
REMARK  167  A    between atoms: _412  and  _415
REMARK  168  A    between atoms: _415  and  _416
REMARK  169  A    between atoms: _418  and  _420
REMARK  170  A    between atoms: _420  and  _421
REMARK  171  A    between atoms: _423  and  _425
REMARK  172  A    between atoms: _425  and  _426
REMARK  173  A    between atoms: _425  and  _428
REMARK  174  A    between atoms: _428  and  _429
REMARK  175  A    between atoms: _434  and  _435
REMARK  176  A    between atoms: _437  and  _439
REMARK  177  A    between atoms: _439  and  _440
REMARK  178  A    between atoms: _439  and  _442
REMARK  179  A    between atoms: _442  and  _443
REMARK  180  A    between atoms: _443  and  _444
REMARK  181  A    between atoms: _449  and  _451
REMARK  182  A    between atoms: _451  and  _452
REMARK  183  A    between atoms: _451  and  _454
REMARK  184  A    between atoms: _454  and  _455
REMARK  185  A    between atoms: _455  and  _456
REMARK  186  A    between atoms: _461  and  _463
REMARK  187  A    between atoms: _463  and  _464
REMARK  188  A    between atoms: _463  and  _466
REMARK  189  A    between atoms: _466  and  _467
REMARK  190  A    between atoms: _472  and  _473
REMARK  191  A    between atoms: _475  and  _477
REMARK  192  A    between atoms: _477  and  _478
REMARK  193  A    between atoms: _481  and  _483
REMARK  194  A    between atoms: _483  and  _484
REMARK  195  A    between atoms: _483  and  _486
REMARK  196  A    between atoms: _486  and  _487
REMARK  197  A    between atoms: _492  and  _493
REMARK  198  A    between atoms: _495  and  _497
REMARK  199  A    between atoms: _497  and  _498
REMARK  200  A    between atoms: _497  and  _500
REMARK  201  A    between atoms: _500  and  _501
REMARK  202  A    between atoms: _506  and  _507
REMARK  203  A    between atoms: _509  and  _511
REMARK  204  A    between atoms: _511  and  _512
REMARK  205  A    between atoms: _511  and  _514
REMARK  206  A    between atoms: _514  and  _515
REMARK  207  A    between atoms: _518  and  _520
REMARK  208  A    between atoms: _520  and  _521
REMARK  209  A    between atoms: _520  and  _523
REMARK  210  A    between atoms: _523  and  _524
REMARK  211  A    between atoms: _534  and  _536
REMARK  212  A    between atoms: _536  and  _537
REMARK  213  A    between atoms: _540  and  _542
REMARK  214  A    between atoms: _542  and  _543
REMARK  215  A    between atoms: _546  and  _548
REMARK  216  A    between atoms: _548  and  _549
REMARK  217  A    between atoms: _548  and  _551
REMARK  218  A    between atoms: _551  and  _552
REMARK  219  A    between atoms: _555  and  _557
REMARK  220  A    between atoms: _557  and  _558
REMARK  221  A    between atoms: _557  and  _560
REMARK  222  A    between atoms: _560  and  _561
REMARK  223  A    between atoms: _564  and  _566
REMARK  224  A    between atoms: _566  and  _567
REMARK  225  A    between atoms: _566  and  _569
REMARK  226  A    between atoms: _569  and  _570
REMARK  227  A    between atoms: _573  and  _575
REMARK  228  A    between atoms: _575  and  _576
REMARK  229  A    between atoms: _575  and  _578
REMARK  230  A    between atoms: _578  and  _579
REMARK  231  A    between atoms: _579  and  _580
REMARK  232  A    between atoms: _580  and  _581
REMARK  233  A    between atoms: _581  and  _582
REMARK  234  A    between atoms: _586  and  _588
REMARK  235  A    between atoms: _588  and  _589
REMARK  236  A    between atoms: _588  and  _591
REMARK  237  A    between atoms: _591  and  _592
REMARK  238  A    between atoms: _597  and  _599
REMARK  239  A    between atoms: _599  and  _600
REMARK  240  A    between atoms: _599  and  _602
REMARK  241  A    between atoms: _602  and  _603
REMARK  242  A    between atoms: _603  and  _604
REMARK  243  A    between atoms: _604  and  _605
REMARK  244  A    between atoms: _605  and  _606
REMARK  245  A    between atoms: _610  and  _612
REMARK  246  A    between atoms: _612  and  _613
REMARK  247  A    between atoms: _612  and  _615
REMARK  248  A    between atoms: _615  and  _616
REMARK  249  A    between atoms: _626  and  _628
REMARK  250  A    between atoms: _628  and  _629
REMARK  251  A    between atoms: _628  and  _631
REMARK  252  A    between atoms: _631  and  _632
REMARK  253  A    between atoms: _632  and  _633
REMARK  254  A    between atoms: _636  and  _638
REMARK  255  A    between atoms: _638  and  _639
REMARK  256  A    between atoms: _642  and  _644
REMARK  257  A    between atoms: _644  and  _645
REMARK  258  A    between atoms: _647  and  _649
REMARK  259  A    between atoms: _649  and  _650
REMARK  260  A    between atoms: _649  and  _652
REMARK  261  A    between atoms: _652  and  _653
REMARK  262  A    between atoms: _653  and  _654
REMARK  263  A    between atoms: _657  and  _659
REMARK  264  A    between atoms: _659  and  _660
REMARK  265  A    between atoms: _663  and  _665
REMARK  266  A    between atoms: _665  and  _666
REMARK  267  A    between atoms: _665  and  _668
REMARK  268  A    between atoms: _668  and  _669
REMARK  269  A    between atoms: _669  and  _670
REMARK  270  A    between atoms: _673  and  _675
REMARK  271  A    between atoms: _675  and  _676
REMARK  272  A    between atoms: _675  and  _678
REMARK  273  A    between atoms: _678  and  _679
REMARK  274  A    between atoms: _679  and  _680
REMARK  275  A    between atoms: _680  and  _681
REMARK  276  A    between atoms: _690  and  _692
REMARK  277  A    between atoms: _692  and  _693
REMARK  278  A    between atoms: _692  and  _695
REMARK  279  A    between atoms: _695  and  _696
REMARK  280  A    between atoms: _699  and  _701
REMARK  281  A    between atoms: _701  and  _702
REMARK  282  A    between atoms: _701  and  _704
REMARK  283  A    between atoms: _704  and  _705
REMARK  284  A    between atoms: _705  and  _706
REMARK  285  A    between atoms: _706  and  _707
REMARK  286  A    between atoms: _716  and  _718
REMARK  287  A    between atoms: _718  and  _719
REMARK  288  A    between atoms: _722  and  _724
REMARK  289  A    between atoms: _724  and  _725
REMARK  290  A    between atoms: _724  and  _727
REMARK  291  A    between atoms: _727  and  _728
REMARK  292  A    between atoms: _733  and  _734
REMARK  293  A    between atoms: _736  and  _738
REMARK  294  A    between atoms: _738  and  _739
REMARK  295  A    between atoms: _738  and  _741
REMARK  296  A    between atoms: _741  and  _742
REMARK  297  A    between atoms: _745  and  _747
REMARK  298  A    between atoms: _747  and  _748
REMARK  299  A    between atoms: _747  and  _750
REMARK  300  A    between atoms: _750  and  _751
REMARK  301  A    between atoms: _754  and  _756
REMARK  302  A    between atoms: _756  and  _757
REMARK  303  A    between atoms: _756  and  _759
REMARK  304  A    between atoms: _761  and  _763
REMARK  305  A    between atoms: _763  and  _764
REMARK  306  A    between atoms: _763  and  _766
REMARK  307  A    between atoms: _769  and  _771
REMARK  308  A    between atoms: _771  and  _772
REMARK  309  A    between atoms: _771  and  _774
REMARK  310  A    between atoms: _774  and  _775
REMARK  311  A    between atoms: _775  and  _776
REMARK  312  A    between atoms: _779  and  _781
REMARK  313  A    between atoms: _781  and  _782
REMARK  314  A    between atoms: _781  and  _784
REMARK  315  A    between atoms: _784  and  _785
REMARK  316  A    between atoms: _795  and  _797
REMARK  317  A    between atoms: _797  and  _798
REMARK  318  A    between atoms: _797  and  _800
REMARK  319  A    between atoms: _800  and  _801
REMARK  320  A    between atoms: _804  and  _806
REMARK  321  A    between atoms: _806  and  _807
REMARK  322  A    between atoms: _806  and  _809
REMARK  323  A    between atoms: _809  and  _810
REMARK  324  A    between atoms: _810  and  _811
REMARK  325  A    between atoms: _811  and  _812
REMARK  326  A    between atoms: _821  and  _823
REMARK  327  A    between atoms: _823  and  _824
REMARK  328  A    between atoms: _823  and  _826
REMARK  329  A    between atoms: _826  and  _827
REMARK  330  A    between atoms: _832  and  _833
REMARK                            x       y       z     vdW  Elec       q    Type
REMARK                         _______ _______ _______ _____ _____    ______ ____
ROOT
ATOM      1  C   ARG A   1      57.305  56.384  10.315  0.00  0.00    +0.238 C 
ATOM      2  O   ARG A   1      57.456  56.155  11.510  0.00  0.00    -0.274 OA
ATOM      3  N   TYR A   2      56.603  55.589   9.510  0.00  0.00    -0.298 N 
ATOM      4  H   TYR A   2      56.500  55.843   8.507  0.00  0.00    +0.150 HD
ENDROOT
BRANCH   1   5
ATOM      5  CA  ARG A   1      57.917  57.637   9.684  0.00  0.00    +0.145 C 
BRANCH   5   6
ATOM      6  N   ARG A   1      58.491  57.355   8.376  0.00  0.00    -0.238 NA
ATOM      7  H   ARG A   1      58.097  57.825   7.536  0.00  0.00    +0.142 HD
ENDBRANCH   5   6
BRANCH   5   8
ATOM      8  CB  ARG A   1      56.837  58.726   9.554  0.00  0.00    +0.030 C 
BRANCH   8   9
ATOM      9  CG  ARG A   1      56.097  59.057  10.849  0.00  0.00    +0.045 C 
BRANCH   9  10
ATOM     10  CD  ARG A   1      54.986  60.067  10.558  0.00  0.00    +0.174 C 
BRANCH  10  11
ATOM     11  NE  ARG A   1      54.118  60.300  11.711  0.00  0.00    -0.265 N 
ATOM     12  CZ  ARG A   1      54.425  61.077  12.744  0.00  0.00    +0.342 C 
ATOM     13  NH2 ARG A   1      53.555  61.226  13.735  0.00  0.00    -0.292 N 
ATOM     14 HH21 ARG A   1      53.790  61.833  14.546  0.00  0.00    +0.255 HD
ATOM     15 HH22 ARG A   1      52.638  60.736  13.700  0.00  0.00    +0.255 HD
ATOM     16  NH1 ARG A   1      55.591  61.713  12.788  0.00  0.00    -0.292 N 
ATOM     17 HH11 ARG A   1      55.822  62.319  13.601  0.00  0.00    +0.255 HD
ATOM     18 HH12 ARG A   1      56.272  61.605  12.010  0.00  0.00    +0.255 HD
ATOM     19  HE  ARG A   1      53.194  59.823  11.724  0.00  0.00    +0.259 HD
ENDBRANCH  10  11
ENDBRANCH   9  10
ENDBRANCH   8   9
ENDBRANCH   5   8
ENDBRANCH   1   5
BRANCH   3  20
ATOM     20  CA  TYR A   2      55.972  54.363  10.007  0.00  0.00    +0.141 C 
BRANCH  20  21
ATOM     21  C   TYR A   2      57.034  53.368  10.462  0.00  0.00    +0.227 C 
ATOM     22  O   TYR A   2      56.879  52.711  11.484  0.00  0.00    -0.286 OA
ENDBRANCH  20  21
BRANCH  20  23
ATOM     23  CB  TYR A   2      55.098  53.719   8.925  0.00  0.00    +0.054 C 
BRANCH  23  24
ATOM     24  CG  TYR A   2      53.936  54.586   8.466  0.00  0.00    -0.020 A 
ATOM     25  CD2 TYR A   2      53.204  55.346   9.377  0.00  0.00    -0.001 A 
ATOM     26  CE2 TYR A   2      52.116  56.143   8.953  0.00  0.00    +0.036 A 
ATOM     27  CZ  TYR A   2      51.770  56.168   7.607  0.00  0.00    +0.134 A 
ATOM     28  CE1 TYR A   2      52.487  55.418   6.685  0.00  0.00    +0.036 A 
ATOM     29  CD1 TYR A   2      53.569  54.631   7.123  0.00  0.00    -0.001 A 
BRANCH  27  30
ATOM     30  OH  TYR A   2      50.697  56.926   7.166  0.00  0.00    -0.506 OA
ATOM     31  HH  TYR A   2      50.291  57.400   7.935  0.00  0.00    +0.292 HD
ENDBRANCH  27  30
ENDBRANCH  23  24
ENDBRANCH  20  23
ENDBRANCH   3  20
TORSDOF 11
REMARK  Name = ../refined-set-2016/1fzm/1fzm_pocket.pdb
REMARK  330 active torsions:
REMARK  status: ('A' for Active; 'I' for Inactive)
REMARK    1  A    between atoms: _1  and  _3
REMARK    2  A    between atoms: _3  and  _4
REMARK    3  A    between atoms: _3  and  _6
REMARK    4  A    between atoms: _6  and  _7
REMARK    5  A    between atoms: _10  and  _12
REMARK    6  A    between atoms: _12  and  _13
REMARK    7  A    between atoms: _12  and  _15
REMARK    8  A    between atoms: _15  and  _16
REMARK    9  A    between atoms: _16  and  _17
REMARK   10  A    between atoms: _17  and  _18
REMARK   11  A    between atoms: _27  and  _29
REMARK   12  A    between atoms: _29  and  _30
REMARK   13  A    between atoms: _29  and  _32
REMARK   14  A    between atoms: _32  and  _33
REMARK   15  A    between atoms: _38  and  _39
REMARK   16  A    between atoms: _41  and  _43
REMARK   17  A    between atoms: _43  and  _44
REMARK   18  A    between atoms: _43  and  _46
REMARK   19  A    between atoms: _46  and  _47
REMARK   20  A    between atoms: _53  and  _55
REMARK   21  A    between atoms: _55  and  _56
REMARK   22  A    between atoms: _55  and  _58
REMARK   23  A    between atoms: _61  and  _63
REMARK   24  A    between atoms: _63  and  _64
REMARK   25  A    between atoms: _63  and  _66
REMARK   26  A    between atoms: _66  and  _67
REMARK   27  A    between atoms: _70  and  _72
REMARK   28  A    between atoms: _72  and  _73
REMARK   29  A    between atoms: _72  and  _75
REMARK   30  A    between atoms: _75  and  _76
REMARK   31  A    between atoms: _82  and  _84
REMARK   32  A    between atoms: _84  and  _85
REMARK   33  A    between atoms: _84  and  _87
REMARK   34  A    between atoms: _87  and  _88
REMARK   35  A    between atoms: _90  and  _92
REMARK   36  A    between atoms: _92  and  _93
REMARK   37  A    between atoms: _92  and  _95
REMARK   38  A    between atoms: _98  and  _100
REMARK   39  A    between atoms: _100  and  _101
REMARK   40  A    between atoms: _100  and  _103
REMARK   41  A    between atoms: _103  and  _104
REMARK   42  A    between atoms: _110  and  _112
REMARK   43  A    between atoms: _112  and  _113
REMARK   44  A    between atoms: _112  and  _115
REMARK   45  A    between atoms: _118  and  _120
REMARK   46  A    between atoms: _120  and  _121
REMARK   47  A    between atoms: _120  and  _123
REMARK   48  A    between atoms: _123  and  _124
REMARK   49  A    between atoms: _129  and  _130
REMARK   50  A    between atoms: _132  and  _134
REMARK   51  A    between atoms: _134  and  _135
REMARK   52  A    between atoms: _134  and  _137
REMARK   53  A    between atoms: _137  and  _138
REMARK   54  A    between atoms: _138  and  _139
REMARK   55  A    between atoms: _141  and  _143
REMARK   56  A    between atoms: _143  and  _144
REMARK   57  A    between atoms: _143  and  _146
REMARK   58  A    between atoms: _146  and  _147
REMARK   59  A    between atoms: _147  and  _148
REMARK   60  A    between atoms: _151  and  _153
REMARK   61  A    between atoms: _153  and  _154
REMARK   62  A    between atoms: _156  and  _158
REMARK   63  A    between atoms: _158  and  _159
REMARK   64  A    between atoms: _158  and  _161
REMARK   65  A    between atoms: _161  and  _162
REMARK   66  A    between atoms: _162  and  _163
REMARK   67  A    between atoms: _166  and  _168
REMARK   68  A    between atoms: _168  and  _169
REMARK   69  A    between atoms: _168  and  _171
REMARK   70  A    between atoms: _171  and  _172
REMARK   71  A    between atoms: _177  and  _178
REMARK   72  A    between atoms: _180  and  _182
REMARK   73  A    between atoms: _182  and  _183
REMARK   74  A    between atoms: _182  and  _185
REMARK   75  A    between atoms: _185  and  _186
REMARK   76  A    between atoms: _196  and  _198
REMARK   77  A    between atoms: _198  and  _199
REMARK   78  A    between atoms: _198  and  _201
REMARK   79  A    between atoms: _201  and  _202
REMARK   80  A    between atoms: _202  and  _203
REMARK   81  A    between atoms: _203  and  _204
REMARK   82  A    between atoms: _213  and  _215
REMARK   83  A    between atoms: _215  and  _216
REMARK   84  A    between atoms: _215  and  _218
REMARK   85  A    between atoms: _218  and  _219
REMARK   86  A    between atoms: _219  and  _220
REMARK   87  A    between atoms: _223  and  _225
REMARK   88  A    between atoms: _225  and  _226
REMARK   89  A    between atoms: _225  and  _228
REMARK   90  A    between atoms: _228  and  _229
REMARK   91  A    between atoms: _229  and  _230
REMARK   92  A    between atoms: _235  and  _237
REMARK   93  A    between atoms: _237  and  _238
REMARK   94  A    between atoms: _237  and  _240
REMARK   95  A    between atoms: _240  and  _241
REMARK   96  A    between atoms: _241  and  _242
REMARK   97  A    between atoms: _242  and  _243
REMARK   98  A    between atoms: _243  and  _244
REMARK   99  A    between atoms: _248  and  _250
REMARK  100  A    between atoms: _250  and  _251
REMARK  101  A    between atoms: _254  and  _256
REMARK  102  A    between atoms: _256  and  _257
REMARK  103  A    between atoms: _259  and  _261
REMARK  104  A    between atoms: _261  and  _262
REMARK  105  A    between atoms: _261  and  _264
REMARK  106  A    between atoms: _264  and  _265
REMARK  107  A    between atoms: _270  and  _272
REMARK  108  A    between atoms: _272  and  _273
REMARK  109  A    between atoms: _272  and  _275
REMARK  110  A    between atoms: _275  and  _276
REMARK  111  A    between atoms: _276  and  _277
REMARK  112  A    between atoms: _280  and  _282
REMARK  113  A    between atoms: _282  and  _283
REMARK  114  A    between atoms: _282  and  _285
REMARK  115  A    between atoms: _285  and  _286
REMARK  116  A    between atoms: _288  and  _290
REMARK  117  A    between atoms: _290  and  _291
REMARK  118  A    between atoms: _290  and  _293
REMARK  119  A    between atoms: _293  and  _294
REMARK  120  A    between atoms: _300  and  _302
REMARK  121  A    between atoms: _302  and  _303
REMARK  122  A    between atoms: _302  and  _305
REMARK  123  A    between atoms: _308  and  _310
REMARK  124  A    between atoms: _310  and  _311
REMARK  125  A    between atoms: _310  and  _313
REMARK  126  A    between atoms: _313  and  _314
REMARK  127  A    between atoms: _317  and  _319
REMARK  128  A    between atoms: _319  and  _320
REMARK  129  A    between atoms: _319  and  _322
REMARK  130  A    between atoms: _322  and  _323
REMARK  131  A    between atoms: _326  and  _328
REMARK  132  A    between atoms: _328  and  _329
REMARK  133  A    between atoms: _328  and  _331
REMARK  134  A    between atoms: _331  and  _332
REMARK  135  A    between atoms: _335  and  _337
REMARK  136  A    between atoms: _337  and  _338
REMARK  137  A    between atoms: _337  and  _340
REMARK  138  A    between atoms: _340  and  _341
REMARK  139  A    between atoms: _344  and  _346
REMARK  140  A    between atoms: _346  and  _347
REMARK  141  A    between atoms: _346  and  _349
REMARK  142  A    between atoms: _349  and  _350
REMARK  143  A    between atoms: _355  and  _356
REMARK  144  A    between atoms: _358  and  _360
REMARK  145  A    between atoms: _360  and  _361
REMARK  146  A    between atoms: _360  and  _363
REMARK  147  A    between atoms: _363  and  _364
REMARK  148  A    between atoms: _369  and  _370
REMARK  149  A    between atoms: _372  and  _374
REMARK  150  A    between atoms: _374  and  _375
REMARK  151  A    between atoms: _374  and  _377
REMARK  152  A    between atoms: _377  and  _378
REMARK  153  A    between atoms: _381  and  _383
REMARK  154  A    between atoms: _383  and  _384
REMARK  155  A    between atoms: _383  and  _386
REMARK  156  A    between atoms: _386  and  _387
REMARK  157  A    between atoms: _387  and  _388
REMARK  158  A    between atoms: _393  and  _395
REMARK  159  A    between atoms: _395  and  _396
REMARK  160  A    between atoms: _395  and  _398
REMARK  161  A    between atoms: _401  and  _403
REMARK  162  A    between atoms: _403  and  _404
REMARK  163  A    between atoms: _403  and  _406
REMARK  164  A    between atoms: _406  and  _407
REMARK  165  A    between atoms: _410  and  _412
REMARK  166  A    between atoms: _412  and  _413
REMARK  167  A    between atoms: _412  and  _415
REMARK  168  A    between atoms: _415  and  _416
REMARK  169  A    between atoms: _418  and  _420
REMARK  170  A    between atoms: _420  and  _421
REMARK  171  A    between atoms: _423  and  _425
REMARK  172  A    between atoms: _425  and  _426
REMARK  173  A    between atoms: _425  and  _428
REMARK  174  A    between atoms: _428  and  _429
REMARK  175  A    between atoms: _434  and  _435
REMARK  176  A    between atoms: _437  and  _439
REMARK  177  A    between atoms: _439  and  _440
REMARK  178  A    between atoms: _439  and  _442
REMARK  179  A    between atoms: _442  and  _443
REMARK  180  A    between atoms: _443  and  _444
REMARK  181  A    between atoms: _449  and  _451
REMARK  182  A    between atoms: _451  and  _452
REMARK  183  A    between atoms: _451  and  _454
REMARK  184  A    between atoms: _454  and  _455
REMARK  185  A    between atoms: _455  and  _456
REMARK  186  A    between atoms: _461  and  _463
REMARK  187  A    between atoms: _463  and  _464
REMARK  188  A    between atoms: _463  and  _466
REMARK  189  A    between atoms: _466  and  _467
REMARK  190  A    between atoms: _472  and  _473
REMARK  191  A    between atoms: _475  and  _477
REMARK  192  A    between atoms: _477  and  _478
REMARK  193  A    between atoms: _481  and  _483
REMARK  194  A    between atoms: _483  and  _484
REMARK  195  A    between atoms: _483  and  _486
REMARK  196  A    between atoms: _486  and  _487
REMARK  197  A    between atoms: _492  and  _493
REMARK  198  A    between atoms: _495  and  _497
REMARK  199  A    between atoms: _497  and  _498
REMARK  200  A    between atoms: _497  and  _500
REMARK  201  A    between atoms: _500  and  _501
REMARK  202  A    between atoms: _506  and  _507
REMARK  203  A    between atoms: _509  and  _511
REMARK  204  A    between atoms: _511  and  _512
REMARK  205  A    between atoms: _511  and  _514
REMARK  206  A    between atoms: _514  and  _515
REMARK  207  A    between atoms: _518  and  _520
REMARK  208  A    between atoms: _520  and  _521
REMARK  209  A    between atoms: _520  and  _523
REMARK  210  A    between atoms: _523  and  _524
REMARK  211  A    between atoms: _534  and  _536
REMARK  212  A    between atoms: _536  and  _537
REMARK  213  A    between atoms: _540  and  _542
REMARK  214  A    between atoms: _542  and  _543
REMARK  215  A    between atoms: _546  and  _548
REMARK  216  A    between atoms: _548  and  _549
REMARK  217  A    between atoms: _548  and  _551
REMARK  218  A    between atoms: _551  and  _552
REMARK  219  A    between atoms: _555  and  _557
REMARK  220  A    between atoms: _557  and  _558
REMARK  221  A    between atoms: _557  and  _560
REMARK  222  A    between atoms: _560  and  _561
REMARK  223  A    between atoms: _564  and  _566
REMARK  224  A    between atoms: _566  and  _567
REMARK  225  A    between atoms: _566  and  _569
REMARK  226  A    between atoms: _569  and  _570
REMARK  227  A    between atoms: _573  and  _575
REMARK  228  A    between atoms: _575  and  _576
REMARK  229  A    between atoms: _575  and  _578
REMARK  230  A    between atoms: _578  and  _579
REMARK  231  A    between atoms: _579  and  _580
REMARK  232  A    between atoms: _580  and  _581
REMARK  233  A    between atoms: _581  and  _582
REMARK  234  A    between atoms: _586  and  _588
REMARK  235  A    between atoms: _588  and  _589
REMARK  236  A    between atoms: _588  and  _591
REMARK  237  A    between atoms: _591  and  _592
REMARK  238  A    between atoms: _597  and  _599
REMARK  239  A    between atoms: _599  and  _600
REMARK  240  A    between atoms: _599  and  _602
REMARK  241  A    between atoms: _602  and  _603
REMARK  242  A    between atoms: _603  and  _604
REMARK  243  A    between atoms: _604  and  _605
REMARK  244  A    between atoms: _605  and  _606
REMARK  245  A    between atoms: _610  and  _612
REMARK  246  A    between atoms: _612  and  _613
REMARK  247  A    between atoms: _612  and  _615
REMARK  248  A    between atoms: _615  and  _616
REMARK  249  A    between atoms: _626  and  _628
REMARK  250  A    between atoms: _628  and  _629
REMARK  251  A    between atoms: _628  and  _631
REMARK  252  A    between atoms: _631  and  _632
REMARK  253  A    between atoms: _632  and  _633
REMARK  254  A    between atoms: _636  and  _638
REMARK  255  A    between atoms: _638  and  _639
REMARK  256  A    between atoms: _642  and  _644
REMARK  257  A    between atoms: _644  and  _645
REMARK  258  A    between atoms: _647  and  _649
REMARK  259  A    between atoms: _649  and  _650
REMARK  260  A    between atoms: _649  and  _652
REMARK  261  A    between atoms: _652  and  _653
REMARK  262  A    between atoms: _653  and  _654
REMARK  263  A    between atoms: _657  and  _659
REMARK  264  A    between atoms: _659  and  _660
REMARK  265  A    between atoms: _663  and  _665
REMARK  266  A    between atoms: _665  and  _666
REMARK  267  A    between atoms: _665  and  _668
REMARK  268  A    between atoms: _668  and  _669
REMARK  269  A    between atoms: _669  and  _670
REMARK  270  A    between atoms: _673  and  _675
REMARK  271  A    between atoms: _675  and  _676
REMARK  272  A    between atoms: _675  and  _678
REMARK  273  A    between atoms: _678  and  _679
REMARK  274  A    between atoms: _679  and  _680
REMARK  275  A    between atoms: _680  and  _681
REMARK  276  A    between atoms: _690  and  _692
REMARK  277  A    between atoms: _692  and  _693
REMARK  278  A    between atoms: _692  and  _695
REMARK  279  A    between atoms: _695  and  _696
REMARK  280  A    between atoms: _699  and  _701
REMARK  281  A    between atoms: _701  and  _702
REMARK  282  A    between atoms: _701  and  _704
REMARK  283  A    between atoms: _704  and  _705
REMARK  284  A    between atoms: _705  and  _706
REMARK  285  A    between atoms: _706  and  _707
REMARK  286  A    between atoms: _716  and  _718
REMARK  287  A    between atoms: _718  and  _719
REMARK  288  A    between atoms: _722  and  _724
REMARK  289  A    between atoms: _724  and  _725
REMARK  290  A    between atoms: _724  and  _727
REMARK  291  A    between atoms: _727  and  _728
REMARK  292  A    between atoms: _733  and  _734
REMARK  293  A    between atoms: _736  and  _738
REMARK  294  A    between atoms: _738  and  _739
REMARK  295  A    between atoms: _738  and  _741
REMARK  296  A    between atoms: _741  and  _742
REMARK  297  A    between atoms: _745  and  _747
REMARK  298  A    between atoms: _747  and  _748
REMARK  299  A    between atoms: _747  and  _750
REMARK  300  A    between atoms: _750  and  _751
REMARK  301  A    between atoms: _754  and  _756
REMARK  302  A    between atoms: _756  and  _757
REMARK  303  A    between atoms: _756  and  _759
REMARK  304  A    between atoms: _761  and  _763
REMARK  305  A    between atoms: _763  and  _764
REMARK  306  A    between atoms: _763  and  _766
REMARK  307  A    between atoms: _769  and  _771
REMARK  308  A    between atoms: _771  and  _772
REMARK  309  A    between atoms: _771  and  _774
REMARK  310  A    between atoms: _774  and  _775
REMARK  311  A    between atoms: _775  and  _776
REMARK  312  A    between atoms: _779  and  _781
REMARK  313  A    between atoms: _781  and  _782
REMARK  314  A    between atoms: _781  and  _784
REMARK  315  A    between atoms: _784  and  _785
REMARK  316  A    between atoms: _795  and  _797
REMARK  317  A    between atoms: _797  and  _798
REMARK  318  A    between atoms: _797  and  _800
REMARK  319  A    between atoms: _800  and  _801
REMARK  320  A    between atoms: _804  and  _806
REMARK  321  A    between atoms: _806  and  _807
REMARK  322  A    between atoms: _806  and  _809
REMARK  323  A    between atoms: _809  and  _810
REMARK  324  A    between atoms: _810  and  _811
REMARK  325  A    between atoms: _811  and  _812
REMARK  326  A    between atoms: _821  and  _823
REMARK  327  A    between atoms: _823  and  _824
REMARK  328  A    between atoms: _823  and  _826
REMARK  329  A    between atoms: _826  and  _827
REMARK  330  A    between atoms: _832  and  _833
REMARK                            x       y       z     vdW  Elec       q    Type
REMARK                         _______ _______ _______ _____ _____    ______ ____
ROOT
ATOM      1  O   HOH     1      41.029  55.782   0.646  0.00  0.00    +0.000 OA
ENDROOT
TORSDOF 0
REMARK  Name = ../refined-set-2016/1fzm/1fzm_pocket.pdb
REMARK  330 active torsions:
REMARK  status: ('A' for Active; 'I' for Inactive)
REMARK    1  A    between atoms: _1  and  _3
REMARK    2  A    between atoms: _3  and  _4
REMARK    3  A    between atoms: _3  and  _6
REMARK    4  A    between atoms: _6  and  _7
REMARK    5  A    between atoms: _10  and  _12
REMARK    6  A    between atoms: _12  and  _13
REMARK    7  A    between atoms: _12  and  _15
REMARK    8  A    between atoms: _15  and  _16
REMARK    9  A    between atoms: _16  and  _17
REMARK   10  A    between atoms: _17  and  _18
REMARK   11  A    between atoms: _27  and  _29
REMARK   12  A    between atoms: _29  and  _30
REMARK   13  A    between atoms: _29  and  _32
REMARK   14  A    between atoms: _32  and  _33
REMARK   15  A    between atoms: _38  and  _39
REMARK   16  A    between atoms: _41  and  _43
REMARK   17  A    between atoms: _43  and  _44
REMARK   18  A    between atoms: _43  and  _46
REMARK   19  A    between atoms: _46  and  _47
REMARK   20  A    between atoms: _53  and  _55
REMARK   21  A    between atoms: _55  and  _56
REMARK   22  A    between atoms: _55  and  _58
REMARK   23  A    between atoms: _61  and  _63
REMARK   24  A    between atoms: _63  and  _64
REMARK   25  A    between atoms: _63  and  _66
REMARK   26  A    between atoms: _66  and  _67
REMARK   27  A    between atoms: _70  and  _72
REMARK   28  A    between atoms: _72  and  _73
REMARK   29  A    between atoms: _72  and  _75
REMARK   30  A    between atoms: _75  and  _76
REMARK   31  A    between atoms: _82  and  _84
REMARK   32  A    between atoms: _84  and  _85
REMARK   33  A    between atoms: _84  and  _87
REMARK   34  A    between atoms: _87  and  _88
REMARK   35  A    between atoms: _90  and  _92
REMARK   36  A    between atoms: _92  and  _93
REMARK   37  A    between atoms: _92  and  _95
REMARK   38  A    between atoms: _98  and  _100
REMARK   39  A    between atoms: _100  and  _101
REMARK   40  A    between atoms: _100  and  _103
REMARK   41  A    between atoms: _103  and  _104
REMARK   42  A    between atoms: _110  and  _112
REMARK   43  A    between atoms: _112  and  _113
REMARK   44  A    between atoms: _112  and  _115
REMARK   45  A    between atoms: _118  and  _120
REMARK   46  A    between atoms: _120  and  _121
REMARK   47  A    between atoms: _120  and  _123
REMARK   48  A    between atoms: _123  and  _124
REMARK   49  A    between atoms: _129  and  _130
REMARK   50  A    between atoms: _132  and  _134
REMARK   51  A    between atoms: _134  and  _135
REMARK   52  A    between atoms: _134  and  _137
REMARK   53  A    between atoms: _137  and  _138
REMARK   54  A    between atoms: _138  and  _139
REMARK   55  A    between atoms: _141  and  _143
REMARK   56  A    between atoms: _143  and  _144
REMARK   57  A    between atoms: _143  and  _146
REMARK   58  A    between atoms: _146  and  _147
REMARK   59  A    between atoms: _147  and  _148
REMARK   60  A    between atoms: _151  and  _153
REMARK   61  A    between atoms: _153  and  _154
REMARK   62  A    between atoms: _156  and  _158
REMARK   63  A    between atoms: _158  and  _159
REMARK   64  A    between atoms: _158  and  _161
REMARK   65  A    between atoms: _161  and  _162
REMARK   66  A    between atoms: _162  and  _163
REMARK   67  A    between atoms: _166  and  _168
REMARK   68  A    between atoms: _168  and  _169
REMARK   69  A    between atoms: _168  and  _171
REMARK   70  A    between atoms: _171  and  _172
REMARK   71  A    between atoms: _177  and  _178
REMARK   72  A    between atoms: _180  and  _182
REMARK   73  A    between atoms: _182  and  _183
REMARK   74  A    between atoms: _182  and  _185
REMARK   75  A    between atoms: _185  and  _186
REMARK   76  A    between atoms: _196  and  _198
REMARK   77  A    between atoms: _198  and  _199
REMARK   78  A    between atoms: _198  and  _201
REMARK   79  A    between atoms: _201  and  _202
REMARK   80  A    between atoms: _202  and  _203
REMARK   81  A    between atoms: _203  and  _204
REMARK   82  A    between atoms: _213  and  _215
REMARK   83  A    between atoms: _215  and  _216
REMARK   84  A    between atoms: _215  and  _218
REMARK   85  A    between atoms: _218  and  _219
REMARK   86  A    between atoms: _219  and  _220
REMARK   87  A    between atoms: _223  and  _225
REMARK   88  A    between atoms: _225  and  _226
REMARK   89  A    between atoms: _225  and  _228
REMARK   90  A    between atoms: _228  and  _229
REMARK   91  A    between atoms: _229  and  _230
REMARK   92  A    between atoms: _235  and  _237
REMARK   93  A    between atoms: _237  and  _238
REMARK   94  A    between atoms: _237  and  _240
REMARK   95  A    between atoms: _240  and  _241
REMARK   96  A    between atoms: _241  and  _242
REMARK   97  A    between atoms: _242  and  _243
REMARK   98  A    between atoms: _243  and  _244
REMARK   99  A    between atoms: _248  and  _250
REMARK  100  A    between atoms: _250  and  _251
REMARK  101  A    between atoms: _254  and  _256
REMARK  102  A    between atoms: _256  and  _257
REMARK  103  A    between atoms: _259  and  _261
REMARK  104  A    between atoms: _261  and  _262
REMARK  105  A    between atoms: _261  and  _264
REMARK  106  A    between atoms: _264  and  _265
REMARK  107  A    between atoms: _270  and  _272
REMARK  108  A    between atoms: _272  and  _273
REMARK  109  A    between atoms: _272  and  _275
REMARK  110  A    between atoms: _275  and  _276
REMARK  111  A    between atoms: _276  and  _277
REMARK  112  A    between atoms: _280  and  _282
REMARK  113  A    between atoms: _282  and  _283
REMARK  114  A    between atoms: _282  and  _285
REMARK  115  A    between atoms: _285  and  _286
REMARK  116  A    between atoms: _288  and  _290
REMARK  117  A    between atoms: _290  and  _291
REMARK  118  A    between atoms: _290  and  _293
REMARK  119  A    between atoms: _293  and  _294
REMARK  120  A    between atoms: _300  and  _302
REMARK  121  A    between atoms: _302  and  _303
REMARK  122  A    between atoms: _302  and  _305
REMARK  123  A    between atoms: _308  and  _310
REMARK  124  A    between atoms: _310  and  _311
REMARK  125  A    between atoms: _310  and  _313
REMARK  126  A    between atoms: _313  and  _314
REMARK  127  A    between atoms: _317  and  _319
REMARK  128  A    between atoms: _319  and  _320
REMARK  129  A    between atoms: _319  and  _322
REMARK  130  A    between atoms: _322  and  _323
REMARK  131  A    between atoms: _326  and  _328
REMARK  132  A    between atoms: _328  and  _329
REMARK  133  A    between atoms: _328  and  _331
REMARK  134  A    between atoms: _331  and  _332
REMARK  135  A    between atoms: _335  and  _337
REMARK  136  A    between atoms: _337  and  _338
REMARK  137  A    between atoms: _337  and  _340
REMARK  138  A    between atoms: _340  and  _341
REMARK  139  A    between atoms: _344  and  _346
REMARK  140  A    between atoms: _346  and  _347
REMARK  141  A    between atoms: _346  and  _349
REMARK  142  A    between atoms: _349  and  _350
REMARK  143  A    between atoms: _355  and  _356
REMARK  144  A    between atoms: _358  and  _360
REMARK  145  A    between atoms: _360  and  _361
REMARK  146  A    between atoms: _360  and  _363
REMARK  147  A    between atoms: _363  and  _364
REMARK  148  A    between atoms: _369  and  _370
REMARK  149  A    between atoms: _372  and  _374
REMARK  150  A    between atoms: _374  and  _375
REMARK  151  A    between atoms: _374  and  _377
REMARK  152  A    between atoms: _377  and  _378
REMARK  153  A    between atoms: _381  and  _383
REMARK  154  A    between atoms: _383  and  _384
REMARK  155  A    between atoms: _383  and  _386
REMARK  156  A    between atoms: _386  and  _387
REMARK  157  A    between atoms: _387  and  _388
REMARK  158  A    between atoms: _393  and  _395
REMARK  159  A    between atoms: _395  and  _396
REMARK  160  A    between atoms: _395  and  _398
REMARK  161  A    between atoms: _401  and  _403
REMARK  162  A    between atoms: _403  and  _404
REMARK  163  A    between atoms: _403  and  _406
REMARK  164  A    between atoms: _406  and  _407
REMARK  165  A    between atoms: _410  and  _412
REMARK  166  A    between atoms: _412  and  _413
REMARK  167  A    between atoms: _412  and  _415
REMARK  168  A    between atoms: _415  and  _416
REMARK  169  A    between atoms: _418  and  _420
REMARK  170  A    between atoms: _420  and  _421
REMARK  171  A    between atoms: _423  and  _425
REMARK  172  A    between atoms: _425  and  _426
REMARK  173  A    between atoms: _425  and  _428
REMARK  174  A    between atoms: _428  and  _429
REMARK  175  A    between atoms: _434  and  _435
REMARK  176  A    between atoms: _437  and  _439
REMARK  177  A    between atoms: _439  and  _440
REMARK  178  A    between atoms: _439  and  _442
REMARK  179  A    between atoms: _442  and  _443
REMARK  180  A    between atoms: _443  and  _444
REMARK  181  A    between atoms: _449  and  _451
REMARK  182  A    between atoms: _451  and  _452
REMARK  183  A    between atoms: _451  and  _454
REMARK  184  A    between atoms: _454  and  _455
REMARK  185  A    between atoms: _455  and  _456
REMARK  186  A    between atoms: _461  and  _463
REMARK  187  A    between atoms: _463  and  _464
REMARK  188  A    between atoms: _463  and  _466
REMARK  189  A    between atoms: _466  and  _467
REMARK  190  A    between atoms: _472  and  _473
REMARK  191  A    between atoms: _475  and  _477
REMARK  192  A    between atoms: _477  and  _478
REMARK  193  A    between atoms: _481  and  _483
REMARK  194  A    between atoms: _483  and  _484
REMARK  195  A    between atoms: _483  and  _486
REMARK  196  A    between atoms: _486  and  _487
REMARK  197  A    between atoms: _492  and  _493
REMARK  198  A    between atoms: _495  and  _497
REMARK  199  A    between atoms: _497  and  _498
REMARK  200  A    between atoms: _497  and  _500
REMARK  201  A    between atoms: _500  and  _501
REMARK  202  A    between atoms: _506  and  _507
REMARK  203  A    between atoms: _509  and  _511
REMARK  204  A    between atoms: _511  and  _512
REMARK  205  A    between atoms: _511  and  _514
REMARK  206  A    between atoms: _514  and  _515
REMARK  207  A    between atoms: _518  and  _520
REMARK  208  A    between atoms: _520  and  _521
REMARK  209  A    between atoms: _520  and  _523
REMARK  210  A    between atoms: _523  and  _524
REMARK  211  A    between atoms: _534  and  _536
REMARK  212  A    between atoms: _536  and  _537
REMARK  213  A    between atoms: _540  and  _542
REMARK  214  A    between atoms: _542  and  _543
REMARK  215  A    between atoms: _546  and  _548
REMARK  216  A    between atoms: _548  and  _549
REMARK  217  A    between atoms: _548  and  _551
REMARK  218  A    between atoms: _551  and  _552
REMARK  219  A    between atoms: _555  and  _557
REMARK  220  A    between atoms: _557  and  _558
REMARK  221  A    between atoms: _557  and  _560
REMARK  222  A    between atoms: _560  and  _561
REMARK  223  A    between atoms: _564  and  _566
REMARK  224  A    between atoms: _566  and  _567
REMARK  225  A    between atoms: _566  and  _569
REMARK  226  A    between atoms: _569  and  _570
REMARK  227  A    between atoms: _573  and  _575
REMARK  228  A    between atoms: _575  and  _576
REMARK  229  A    between atoms: _575  and  _578
REMARK  230  A    between atoms: _578  and  _579
REMARK  231  A    between atoms: _579  and  _580
REMARK  232  A    between atoms: _580  and  _581
REMARK  233  A    between atoms: _581  and  _582
REMARK  234  A    between atoms: _586  and  _588
REMARK  235  A    between atoms: _588  and  _589
REMARK  236  A    between atoms: _588  and  _591
REMARK  237  A    between atoms: _591  and  _592
REMARK  238  A    between atoms: _597  and  _599
REMARK  239  A    between atoms: _599  and  _600
REMARK  240  A    between atoms: _599  and  _602
REMARK  241  A    between atoms: _602  and  _603
REMARK  242  A    between atoms: _603  and  _604
REMARK  243  A    between atoms: _604  and  _605
REMARK  244  A    between atoms: _605  and  _606
REMARK  245  A    between atoms: _610  and  _612
REMARK  246  A    between atoms: _612  and  _613
REMARK  247  A    between atoms: _612  and  _615
REMARK  248  A    between atoms: _615  and  _616
REMARK  249  A    between atoms: _626  and  _628
REMARK  250  A    between atoms: _628  and  _629
REMARK  251  A    between atoms: _628  and  _631
REMARK  252  A    between atoms: _631  and  _632
REMARK  253  A    between atoms: _632  and  _633
REMARK  254  A    between atoms: _636  and  _638
REMARK  255  A    between atoms: _638  and  _639
REMARK  256  A    between atoms: _642  and  _644
REMARK  257  A    between atoms: _644  and  _645
REMARK  258  A    between atoms: _647  and  _649
REMARK  259  A    between atoms: _649  and  _650
REMARK  260  A    between atoms: _649  and  _652
REMARK  261  A    between atoms: _652  and  _653
REMARK  262  A    between atoms: _653  and  _654
REMARK  263  A    between atoms: _657  and  _659
REMARK  264  A    between atoms: _659  and  _660
REMARK  265  A    between atoms: _663  and  _665
REMARK  266  A    between atoms: _665  and  _666
REMARK  267  A    between atoms: _665  and  _668
REMARK  268  A    between atoms: _668  and  _669
REMARK  269  A    between atoms: _669  and  _670
REMARK  270  A    between atoms: _673  and  _675
REMARK  271  A    between atoms: _675  and  _676
REMARK  272  A    between atoms: _675  and  _678
REMARK  273  A    between atoms: _678  and  _679
REMARK  274  A    between atoms: _679  and  _680
REMARK  275  A    between atoms: _680  and  _681
REMARK  276  A    between atoms: _690  and  _692
REMARK  277  A    between atoms: _692  and  _693
REMARK  278  A    between atoms: _692  and  _695
REMARK  279  A    between atoms: _695  and  _696
REMARK  280  A    between atoms: _699  and  _701
REMARK  281  A    between atoms: _701  and  _702
REMARK  282  A    between atoms: _701  and  _704
REMARK  283  A    between atoms: _704  and  _705
REMARK  284  A    between atoms: _705  and  _706
REMARK  285  A    between atoms: _706  and  _707
REMARK  286  A    between atoms: _716  and  _718
REMARK  287  A    between atoms: _718  and  _719
REMARK  288  A    between atoms: _722  and  _724
REMARK  289  A    between atoms: _724  and  _725
REMARK  290  A    between atoms: _724  and  _727
REMARK  291  A    between atoms: _727  and  _728
REMARK  292  A    between atoms: _733  and  _734
REMARK  293  A    between atoms: _736  and  _738
REMARK  294  A    between atoms: _738  and  _739
REMARK  295  A    between atoms: _738  and  _741
REMARK  296  A    between atoms: _741  and  _742
REMARK  297  A    between atoms: _745  and  _747
REMARK  298  A    between atoms: _747  and  _748
REMARK  299  A    between atoms: _747  and  _750
REMARK  300  A    between atoms: _750  and  _751
REMARK  301  A    between atoms: _754  and  _756
REMARK  302  A    between atoms: _756  and  _757
REMARK  303  A    between atoms: _756  and  _759
REMARK  304  A    between atoms: _761  and  _763
REMARK  305  A    between atoms: _763  and  _764
REMARK  306  A    between atoms: _763  and  _766
REMARK  307  A    between atoms: _769  and  _771
REMARK  308  A    between atoms: _771  and  _772
REMARK  309  A    between atoms: _771  and  _774
REMARK  310  A    between atoms: _774  and  _775
REMARK  311  A    between atoms: _775  and  _776
REMARK  312  A    between atoms: _779  and  _781
REMARK  313  A    between atoms: _781  and  _782
REMARK  314  A    between atoms: _781  and  _784
REMARK  315  A    between atoms: _784  and  _785
REMARK  316  A    between atoms: _795  and  _797
REMARK  317  A    between atoms: _797  and  _798
REMARK  318  A    between atoms: _797  and  _800
REMARK  319  A    between atoms: _800  and  _801
REMARK  320  A    between atoms: _804  and  _806
REMARK  321  A    between atoms: _806  and  _807
REMARK  322  A    between atoms: _806  and  _809
REMARK  323  A    between atoms: _809  and  _810
REMARK  324  A    between atoms: _810  and  _811
REMARK  325  A    between atoms: _811  and  _812
REMARK  326  A    between atoms: _821  and  _823
REMARK  327  A    between atoms: _823  and  _824
REMARK  328  A    between atoms: _823  and  _826
REMARK  329  A    between atoms: _826  and  _827
REMARK  330  A    between atoms: _832  and  _833
REMARK                            x       y       z     vdW  Elec       q    Type
REMARK                         _______ _______ _______ _____ _____    ______ ____
ROOT
ATOM      1  O   HOH     1      50.494  65.038  -5.062  0.00  0.00    +0.000 OA
ENDROOT
TORSDOF 0
REMARK  Name = ../refined-set-2016/1fzm/1fzm_pocket.pdb
REMARK  330 active torsions:
REMARK  status: ('A' for Active; 'I' for Inactive)
REMARK    1  A    between atoms: _1  and  _3
REMARK    2  A    between atoms: _3  and  _4
REMARK    3  A    between atoms: _3  and  _6
REMARK    4  A    between atoms: _6  and  _7
REMARK    5  A    between atoms: _10  and  _12
REMARK    6  A    between atoms: _12  and  _13
REMARK    7  A    between atoms: _12  and  _15
REMARK    8  A    between atoms: _15  and  _16
REMARK    9  A    between atoms: _16  and  _17
REMARK   10  A    between atoms: _17  and  _18
REMARK   11  A    between atoms: _27  and  _29
REMARK   12  A    between atoms: _29  and  _30
REMARK   13  A    between atoms: _29  and  _32
REMARK   14  A    between atoms: _32  and  _33
REMARK   15  A    between atoms: _38  and  _39
REMARK   16  A    between atoms: _41  and  _43
REMARK   17  A    between atoms: _43  and  _44
REMARK   18  A    between atoms: _43  and  _46
REMARK   19  A    between atoms: _46  and  _47
REMARK   20  A    between atoms: _53  and  _55
REMARK   21  A    between atoms: _55  and  _56
REMARK   22  A    between atoms: _55  and  _58
REMARK   23  A    between atoms: _61  and  _63
REMARK   24  A    between atoms: _63  and  _64
REMARK   25  A    between atoms: _63  and  _66
REMARK   26  A    between atoms: _66  and  _67
REMARK   27  A    between atoms: _70  and  _72
REMARK   28  A    between atoms: _72  and  _73
REMARK   29  A    between atoms: _72  and  _75
REMARK   30  A    between atoms: _75  and  _76
REMARK   31  A    between atoms: _82  and  _84
REMARK   32  A    between atoms: _84  and  _85
REMARK   33  A    between atoms: _84  and  _87
REMARK   34  A    between atoms: _87  and  _88
REMARK   35  A    between atoms: _90  and  _92
REMARK   36  A    between atoms: _92  and  _93
REMARK   37  A    between atoms: _92  and  _95
REMARK   38  A    between atoms: _98  and  _100
REMARK   39  A    between atoms: _100  and  _101
REMARK   40  A    between atoms: _100  and  _103
REMARK   41  A    between atoms: _103  and  _104
REMARK   42  A    between atoms: _110  and  _112
REMARK   43  A    between atoms: _112  and  _113
REMARK   44  A    between atoms: _112  and  _115
REMARK   45  A    between atoms: _118  and  _120
REMARK   46  A    between atoms: _120  and  _121
REMARK   47  A    between atoms: _120  and  _123
REMARK   48  A    between atoms: _123  and  _124
REMARK   49  A    between atoms: _129  and  _130
REMARK   50  A    between atoms: _132  and  _134
REMARK   51  A    between atoms: _134  and  _135
REMARK   52  A    between atoms: _134  and  _137
REMARK   53  A    between atoms: _137  and  _138
REMARK   54  A    between atoms: _138  and  _139
REMARK   55  A    between atoms: _141  and  _143
REMARK   56  A    between atoms: _143  and  _144
REMARK   57  A    between atoms: _143  and  _146
REMARK   58  A    between atoms: _146  and  _147
REMARK   59  A    between atoms: _147  and  _148
REMARK   60  A    between atoms: _151  and  _153
REMARK   61  A    between atoms: _153  and  _154
REMARK   62  A    between atoms: _156  and  _158
REMARK   63  A    between atoms: _158  and  _159
REMARK   64  A    between atoms: _158  and  _161
REMARK   65  A    between atoms: _161  and  _162
REMARK   66  A    between atoms: _162  and  _163
REMARK   67  A    between atoms: _166  and  _168
REMARK   68  A    between atoms: _168  and  _169
REMARK   69  A    between atoms: _168  and  _171
REMARK   70  A    between atoms: _171  and  _172
REMARK   71  A    between atoms: _177  and  _178
REMARK   72  A    between atoms: _180  and  _182
REMARK   73  A    between atoms: _182  and  _183
REMARK   74  A    between atoms: _182  and  _185
REMARK   75  A    between atoms: _185  and  _186
REMARK   76  A    between atoms: _196  and  _198
REMARK   77  A    between atoms: _198  and  _199
REMARK   78  A    between atoms: _198  and  _201
REMARK   79  A    between atoms: _201  and  _202
REMARK   80  A    between atoms: _202  and  _203
REMARK   81  A    between atoms: _203  and  _204
REMARK   82  A    between atoms: _213  and  _215
REMARK   83  A    between atoms: _215  and  _216
REMARK   84  A    between atoms: _215  and  _218
REMARK   85  A    between atoms: _218  and  _219
REMARK   86  A    between atoms: _219  and  _220
REMARK   87  A    between atoms: _223  and  _225
REMARK   88  A    between atoms: _225  and  _226
REMARK   89  A    between atoms: _225  and  _228
REMARK   90  A    between atoms: _228  and  _229
REMARK   91  A    between atoms: _229  and  _230
REMARK   92  A    between atoms: _235  and  _237
REMARK   93  A    between atoms: _237  and  _238
REMARK   94  A    between atoms: _237  and  _240
REMARK   95  A    between atoms: _240  and  _241
REMARK   96  A    between atoms: _241  and  _242
REMARK   97  A    between atoms: _242  and  _243
REMARK   98  A    between atoms: _243  and  _244
REMARK   99  A    between atoms: _248  and  _250
REMARK  100  A    between atoms: _250  and  _251
REMARK  101  A    between atoms: _254  and  _256
REMARK  102  A    between atoms: _256  and  _257
REMARK  103  A    between atoms: _259  and  _261
REMARK  104  A    between atoms: _261  and  _262
REMARK  105  A    between atoms: _261  and  _264
REMARK  106  A    between atoms: _264  and  _265
REMARK  107  A    between atoms: _270  and  _272
REMARK  108  A    between atoms: _272  and  _273
REMARK  109  A    between atoms: _272  and  _275
REMARK  110  A    between atoms: _275  and  _276
REMARK  111  A    between atoms: _276  and  _277
REMARK  112  A    between atoms: _280  and  _282
REMARK  113  A    between atoms: _282  and  _283
REMARK  114  A    between atoms: _282  and  _285
REMARK  115  A    between atoms: _285  and  _286
REMARK  116  A    between atoms: _288  and  _290
REMARK  117  A    between atoms: _290  and  _291
REMARK  118  A    between atoms: _290  and  _293
REMARK  119  A    between atoms: _293  and  _294
REMARK  120  A    between atoms: _300  and  _302
REMARK  121  A    between atoms: _302  and  _303
REMARK  122  A    between atoms: _302  and  _305
REMARK  123  A    between atoms: _308  and  _310
REMARK  124  A    between atoms: _310  and  _311
REMARK  125  A    between atoms: _310  and  _313
REMARK  126  A    between atoms: _313  and  _314
REMARK  127  A    between atoms: _317  and  _319
REMARK  128  A    between atoms: _319  and  _320
REMARK  129  A    between atoms: _319  and  _322
REMARK  130  A    between atoms: _322  and  _323
REMARK  131  A    between atoms: _326  and  _328
REMARK  132  A    between atoms: _328  and  _329
REMARK  133  A    between atoms: _328  and  _331
REMARK  134  A    between atoms: _331  and  _332
REMARK  135  A    between atoms: _335  and  _337
REMARK  136  A    between atoms: _337  and  _338
REMARK  137  A    between atoms: _337  and  _340
REMARK  138  A    between atoms: _340  and  _341
REMARK  139  A    between atoms: _344  and  _346
REMARK  140  A    between atoms: _346  and  _347
REMARK  141  A    between atoms: _346  and  _349
REMARK  142  A    between atoms: _349  and  _350
REMARK  143  A    between atoms: _355  and  _356
REMARK  144  A    between atoms: _358  and  _360
REMARK  145  A    between atoms: _360  and  _361
REMARK  146  A    between atoms: _360  and  _363
REMARK  147  A    between atoms: _363  and  _364
REMARK  148  A    between atoms: _369  and  _370
REMARK  149  A    between atoms: _372  and  _374
REMARK  150  A    between atoms: _374  and  _375
REMARK  151  A    between atoms: _374  and  _377
REMARK  152  A    between atoms: _377  and  _378
REMARK  153  A    between atoms: _381  and  _383
REMARK  154  A    between atoms: _383  and  _384
REMARK  155  A    between atoms: _383  and  _386
REMARK  156  A    between atoms: _386  and  _387
REMARK  157  A    between atoms: _387  and  _388
REMARK  158  A    between atoms: _393  and  _395
REMARK  159  A    between atoms: _395  and  _396
REMARK  160  A    between atoms: _395  and  _398
REMARK  161  A    between atoms: _401  and  _403
REMARK  162  A    between atoms: _403  and  _404
REMARK  163  A    between atoms: _403  and  _406
REMARK  164  A    between atoms: _406  and  _407
REMARK  165  A    between atoms: _410  and  _412
REMARK  166  A    between atoms: _412  and  _413
REMARK  167  A    between atoms: _412  and  _415
REMARK  168  A    between atoms: _415  and  _416
REMARK  169  A    between atoms: _418  and  _420
REMARK  170  A    between atoms: _420  and  _421
REMARK  171  A    between atoms: _423  and  _425
REMARK  172  A    between atoms: _425  and  _426
REMARK  173  A    between atoms: _425  and  _428
REMARK  174  A    between atoms: _428  and  _429
REMARK  175  A    between atoms: _434  and  _435
REMARK  176  A    between atoms: _437  and  _439
REMARK  177  A    between atoms: _439  and  _440
REMARK  178  A    between atoms: _439  and  _442
REMARK  179  A    between atoms: _442  and  _443
REMARK  180  A    between atoms: _443  and  _444
REMARK  181  A    between atoms: _449  and  _451
REMARK  182  A    between atoms: _451  and  _452
REMARK  183  A    between atoms: _451  and  _454
REMARK  184  A    between atoms: _454  and  _455
REMARK  185  A    between atoms: _455  and  _456
REMARK  186  A    between atoms: _461  and  _463
REMARK  187  A    between atoms: _463  and  _464
REMARK  188  A    between atoms: _463  and  _466
REMARK  189  A    between atoms: _466  and  _467
REMARK  190  A    between atoms: _472  and  _473
REMARK  191  A    between atoms: _475  and  _477
REMARK  192  A    between atoms: _477  and  _478
REMARK  193  A    between atoms: _481  and  _483
REMARK  194  A    between atoms: _483  and  _484
REMARK  195  A    between atoms: _483  and  _486
REMARK  196  A    between atoms: _486  and  _487
REMARK  197  A    between atoms: _492  and  _493
REMARK  198  A    between atoms: _495  and  _497
REMARK  199  A    between atoms: _497  and  _498
REMARK  200  A    between atoms: _497  and  _500
REMARK  201  A    between atoms: _500  and  _501
REMARK  202  A    between atoms: _506  and  _507
REMARK  203  A    between atoms: _509  and  _511
REMARK  204  A    between atoms: _511  and  _512
REMARK  205  A    between atoms: _511  and  _514
REMARK  206  A    between atoms: _514  and  _515
REMARK  207  A    between atoms: _518  and  _520
REMARK  208  A    between atoms: _520  and  _521
REMARK  209  A    between atoms: _520  and  _523
REMARK  210  A    between atoms: _523  and  _524
REMARK  211  A    between atoms: _534  and  _536
REMARK  212  A    between atoms: _536  and  _537
REMARK  213  A    between atoms: _540  and  _542
REMARK  214  A    between atoms: _542  and  _543
REMARK  215  A    between atoms: _546  and  _548
REMARK  216  A    between atoms: _548  and  _549
REMARK  217  A    between atoms: _548  and  _551
REMARK  218  A    between atoms: _551  and  _552
REMARK  219  A    between atoms: _555  and  _557
REMARK  220  A    between atoms: _557  and  _558
REMARK  221  A    between atoms: _557  and  _560
REMARK  222  A    between atoms: _560  and  _561
REMARK  223  A    between atoms: _564  and  _566
REMARK  224  A    between atoms: _566  and  _567
REMARK  225  A    between atoms: _566  and  _569
REMARK  226  A    between atoms: _569  and  _570
REMARK  227  A    between atoms: _573  and  _575
REMARK  228  A    between atoms: _575  and  _576
REMARK  229  A    between atoms: _575  and  _578
REMARK  230  A    between atoms: _578  and  _579
REMARK  231  A    between atoms: _579  and  _580
REMARK  232  A    between atoms: _580  and  _581
REMARK  233  A    between atoms: _581  and  _582
REMARK  234  A    between atoms: _586  and  _588
REMARK  235  A    between atoms: _588  and  _589
REMARK  236  A    between atoms: _588  and  _591
REMARK  237  A    between atoms: _591  and  _592
REMARK  238  A    between atoms: _597  and  _599
REMARK  239  A    between atoms: _599  and  _600
REMARK  240  A    between atoms: _599  and  _602
REMARK  241  A    between atoms: _602  and  _603
REMARK  242  A    between atoms: _603  and  _604
REMARK  243  A    between atoms: _604  and  _605
REMARK  244  A    between atoms: _605  and  _606
REMARK  245  A    between atoms: _610  and  _612
REMARK  246  A    between atoms: _612  and  _613
REMARK  247  A    between atoms: _612  and  _615
REMARK  248  A    between atoms: _615  and  _616
REMARK  249  A    between atoms: _626  and  _628
REMARK  250  A    between atoms: _628  and  _629
REMARK  251  A    between atoms: _628  and  _631
REMARK  252  A    between atoms: _631  and  _632
REMARK  253  A    between atoms: _632  and  _633
REMARK  254  A    between atoms: _636  and  _638
REMARK  255  A    between atoms: _638  and  _639
REMARK  256  A    between atoms: _642  and  _644
REMARK  257  A    between atoms: _644  and  _645
REMARK  258  A    between atoms: _647  and  _649
REMARK  259  A    between atoms: _649  and  _650
REMARK  260  A    between atoms: _649  and  _652
REMARK  261  A    between atoms: _652  and  _653
REMARK  262  A    between atoms: _653  and  _654
REMARK  263  A    between atoms: _657  and  _659
REMARK  264  A    between atoms: _659  and  _660
REMARK  265  A    between atoms: _663  and  _665
REMARK  266  A    between atoms: _665  and  _666
REMARK  267  A    between atoms: _665  and  _668
REMARK  268  A    between atoms: _668  and  _669
REMARK  269  A    between atoms: _669  and  _670
REMARK  270  A    between atoms: _673  and  _675
REMARK  271  A    between atoms: _675  and  _676
REMARK  272  A    between atoms: _675  and  _678
REMARK  273  A    between atoms: _678  and  _679
REMARK  274  A    between atoms: _679  and  _680
REMARK  275  A    between atoms: _680  and  _681
REMARK  276  A    between atoms: _690  and  _692
REMARK  277  A    between atoms: _692  and  _693
REMARK  278  A    between atoms: _692  and  _695
REMARK  279  A    between atoms: _695  and  _696
REMARK  280  A    between atoms: _699  and  _701
REMARK  281  A    between atoms: _701  and  _702
REMARK  282  A    between atoms: _701  and  _704
REMARK  283  A    between atoms: _704  and  _705
REMARK  284  A    between atoms: _705  and  _706
REMARK  285  A    between atoms: _706  and  _707
REMARK  286  A    between atoms: _716  and  _718
REMARK  287  A    between atoms: _718  and  _719
REMARK  288  A    between atoms: _722  and  _724
REMARK  289  A    between atoms: _724  and  _725
REMARK  290  A    between atoms: _724  and  _727
REMARK  291  A    between atoms: _727  and  _728
REMARK  292  A    between atoms: _733  and  _734
REMARK  293  A    between atoms: _736  and  _738
REMARK  294  A    between atoms: _738  and  _739
REMARK  295  A    between atoms: _738  and  _741
REMARK  296  A    between atoms: _741  and  _742
REMARK  297  A    between atoms: _745  and  _747
REMARK  298  A    between atoms: _747  and  _748
REMARK  299  A    between atoms: _747  and  _750
REMARK  300  A    between atoms: _750  and  _751
REMARK  301  A    between atoms: _754  and  _756
REMARK  302  A    between atoms: _756  and  _757
REMARK  303  A    between atoms: _756  and  _759
REMARK  304  A    between atoms: _761  and  _763
REMARK  305  A    between atoms: _763  and  _764
REMARK  306  A    between atoms: _763  and  _766
REMARK  307  A    between atoms: _769  and  _771
REMARK  308  A    between atoms: _771  and  _772
REMARK  309  A    between atoms: _771  and  _774
REMARK  310  A    between atoms: _774  and  _775
REMARK  311  A    between atoms: _775  and  _776
REMARK  312  A    between atoms: _779  and  _781
REMARK  313  A    between atoms: _781  and  _782
REMARK  314  A    between atoms: _781  and  _784
REMARK  315  A    between atoms: _784  and  _785
REMARK  316  A    between atoms: _795  and  _797
REMARK  317  A    between atoms: _797  and  _798
REMARK  318  A    between atoms: _797  and  _800
REMARK  319  A    between atoms: _800  and  _801
REMARK  320  A    between atoms: _804  and  _806
REMARK  321  A    between atoms: _806  and  _807
REMARK  322  A    between atoms: _806  and  _809
REMARK  323  A    between atoms: _809  and  _810
REMARK  324  A    between atoms: _810  and  _811
REMARK  325  A    between atoms: _811  and  _812
REMARK  326  A    between atoms: _821  and  _823
REMARK  327  A    between atoms: _823  and  _824
REMARK  328  A    between atoms: _823  and  _826
REMARK  329  A    between atoms: _826  and  _827
REMARK  330  A    between atoms: _832  and  _833
REMARK                            x       y       z     vdW  Elec       q    Type
REMARK                         _______ _______ _______ _____ _____    ______ ____
ROOT
ATOM      1  O   HOH     1      44.041  58.109  -9.553  0.00  0.00    +0.000 OA
ENDROOT
TORSDOF 0
REMARK  Name = ../refined-set-2016/1fzm/1fzm_pocket.pdb
REMARK  330 active torsions:
REMARK  status: ('A' for Active; 'I' for Inactive)
REMARK    1  A    between atoms: _1  and  _3
REMARK    2  A    between atoms: _3  and  _4
REMARK    3  A    between atoms: _3  and  _6
REMARK    4  A    between atoms: _6  and  _7
REMARK    5  A    between atoms: _10  and  _12
REMARK    6  A    between atoms: _12  and  _13
REMARK    7  A    between atoms: _12  and  _15
REMARK    8  A    between atoms: _15  and  _16
REMARK    9  A    between atoms: _16  and  _17
REMARK   10  A    between atoms: _17  and  _18
REMARK   11  A    between atoms: _27  and  _29
REMARK   12  A    between atoms: _29  and  _30
REMARK   13  A    between atoms: _29  and  _32
REMARK   14  A    between atoms: _32  and  _33
REMARK   15  A    between atoms: _38  and  _39
REMARK   16  A    between atoms: _41  and  _43
REMARK   17  A    between atoms: _43  and  _44
REMARK   18  A    between atoms: _43  and  _46
REMARK   19  A    between atoms: _46  and  _47
REMARK   20  A    between atoms: _53  and  _55
REMARK   21  A    between atoms: _55  and  _56
REMARK   22  A    between atoms: _55  and  _58
REMARK   23  A    between atoms: _61  and  _63
REMARK   24  A    between atoms: _63  and  _64
REMARK   25  A    between atoms: _63  and  _66
REMARK   26  A    between atoms: _66  and  _67
REMARK   27  A    between atoms: _70  and  _72
REMARK   28  A    between atoms: _72  and  _73
REMARK   29  A    between atoms: _72  and  _75
REMARK   30  A    between atoms: _75  and  _76
REMARK   31  A    between atoms: _82  and  _84
REMARK   32  A    between atoms: _84  and  _85
REMARK   33  A    between atoms: _84  and  _87
REMARK   34  A    between atoms: _87  and  _88
REMARK   35  A    between atoms: _90  and  _92
REMARK   36  A    between atoms: _92  and  _93
REMARK   37  A    between atoms: _92  and  _95
REMARK   38  A    between atoms: _98  and  _100
REMARK   39  A    between atoms: _100  and  _101
REMARK   40  A    between atoms: _100  and  _103
REMARK   41  A    between atoms: _103  and  _104
REMARK   42  A    between atoms: _110  and  _112
REMARK   43  A    between atoms: _112  and  _113
REMARK   44  A    between atoms: _112  and  _115
REMARK   45  A    between atoms: _118  and  _120
REMARK   46  A    between atoms: _120  and  _121
REMARK   47  A    between atoms: _120  and  _123
REMARK   48  A    between atoms: _123  and  _124
REMARK   49  A    between atoms: _129  and  _130
REMARK   50  A    between atoms: _132  and  _134
REMARK   51  A    between atoms: _134  and  _135
REMARK   52  A    between atoms: _134  and  _137
REMARK   53  A    between atoms: _137  and  _138
REMARK   54  A    between atoms: _138  and  _139
REMARK   55  A    between atoms: _141  and  _143
REMARK   56  A    between atoms: _143  and  _144
REMARK   57  A    between atoms: _143  and  _146
REMARK   58  A    between atoms: _146  and  _147
REMARK   59  A    between atoms: _147  and  _148
REMARK   60  A    between atoms: _151  and  _153
REMARK   61  A    between atoms: _153  and  _154
REMARK   62  A    between atoms: _156  and  _158
REMARK   63  A    between atoms: _158  and  _159
REMARK   64  A    between atoms: _158  and  _161
REMARK   65  A    between atoms: _161  and  _162
REMARK   66  A    between atoms: _162  and  _163
REMARK   67  A    between atoms: _166  and  _168
REMARK   68  A    between atoms: _168  and  _169
REMARK   69  A    between atoms: _168  and  _171
REMARK   70  A    between atoms: _171  and  _172
REMARK   71  A    between atoms: _177  and  _178
REMARK   72  A    between atoms: _180  and  _182
REMARK   73  A    between atoms: _182  and  _183
REMARK   74  A    between atoms: _182  and  _185
REMARK   75  A    between atoms: _185  and  _186
REMARK   76  A    between atoms: _196  and  _198
REMARK   77  A    between atoms: _198  and  _199
REMARK   78  A    between atoms: _198  and  _201
REMARK   79  A    between atoms: _201  and  _202
REMARK   80  A    between atoms: _202  and  _203
REMARK   81  A    between atoms: _203  and  _204
REMARK   82  A    between atoms: _213  and  _215
REMARK   83  A    between atoms: _215  and  _216
REMARK   84  A    between atoms: _215  and  _218
REMARK   85  A    between atoms: _218  and  _219
REMARK   86  A    between atoms: _219  and  _220
REMARK   87  A    between atoms: _223  and  _225
REMARK   88  A    between atoms: _225  and  _226
REMARK   89  A    between atoms: _225  and  _228
REMARK   90  A    between atoms: _228  and  _229
REMARK   91  A    between atoms: _229  and  _230
REMARK   92  A    between atoms: _235  and  _237
REMARK   93  A    between atoms: _237  and  _238
REMARK   94  A    between atoms: _237  and  _240
REMARK   95  A    between atoms: _240  and  _241
REMARK   96  A    between atoms: _241  and  _242
REMARK   97  A    between atoms: _242  and  _243
REMARK   98  A    between atoms: _243  and  _244
REMARK   99  A    between atoms: _248  and  _250
REMARK  100  A    between atoms: _250  and  _251
REMARK  101  A    between atoms: _254  and  _256
REMARK  102  A    between atoms: _256  and  _257
REMARK  103  A    between atoms: _259  and  _261
REMARK  104  A    between atoms: _261  and  _262
REMARK  105  A    between atoms: _261  and  _264
REMARK  106  A    between atoms: _264  and  _265
REMARK  107  A    between atoms: _270  and  _272
REMARK  108  A    between atoms: _272  and  _273
REMARK  109  A    between atoms: _272  and  _275
REMARK  110  A    between atoms: _275  and  _276
REMARK  111  A    between atoms: _276  and  _277
REMARK  112  A    between atoms: _280  and  _282
REMARK  113  A    between atoms: _282  and  _283
REMARK  114  A    between atoms: _282  and  _285
REMARK  115  A    between atoms: _285  and  _286
REMARK  116  A    between atoms: _288  and  _290
REMARK  117  A    between atoms: _290  and  _291
REMARK  118  A    between atoms: _290  and  _293
REMARK  119  A    between atoms: _293  and  _294
REMARK  120  A    between atoms: _300  and  _302
REMARK  121  A    between atoms: _302  and  _303
REMARK  122  A    between atoms: _302  and  _305
REMARK  123  A    between atoms: _308  and  _310
REMARK  124  A    between atoms: _310  and  _311
REMARK  125  A    between atoms: _310  and  _313
REMARK  126  A    between atoms: _313  and  _314
REMARK  127  A    between atoms: _317  and  _319
REMARK  128  A    between atoms: _319  and  _320
REMARK  129  A    between atoms: _319  and  _322
REMARK  130  A    between atoms: _322  and  _323
REMARK  131  A    between atoms: _326  and  _328
REMARK  132  A    between atoms: _328  and  _329
REMARK  133  A    between atoms: _328  and  _331
REMARK  134  A    between atoms: _331  and  _332
REMARK  135  A    between atoms: _335  and  _337
REMARK  136  A    between atoms: _337  and  _338
REMARK  137  A    between atoms: _337  and  _340
REMARK  138  A    between atoms: _340  and  _341
REMARK  139  A    between atoms: _344  and  _346
REMARK  140  A    between atoms: _346  and  _347
REMARK  141  A    between atoms: _346  and  _349
REMARK  142  A    between atoms: _349  and  _350
REMARK  143  A    between atoms: _355  and  _356
REMARK  144  A    between atoms: _358  and  _360
REMARK  145  A    between atoms: _360  and  _361
REMARK  146  A    between atoms: _360  and  _363
REMARK  147  A    between atoms: _363  and  _364
REMARK  148  A    between atoms: _369  and  _370
REMARK  149  A    between atoms: _372  and  _374
REMARK  150  A    between atoms: _374  and  _375
REMARK  151  A    between atoms: _374  and  _377
REMARK  152  A    between atoms: _377  and  _378
REMARK  153  A    between atoms: _381  and  _383
REMARK  154  A    between atoms: _383  and  _384
REMARK  155  A    between atoms: _383  and  _386
REMARK  156  A    between atoms: _386  and  _387
REMARK  157  A    between atoms: _387  and  _388
REMARK  158  A    between atoms: _393  and  _395
REMARK  159  A    between atoms: _395  and  _396
REMARK  160  A    between atoms: _395  and  _398
REMARK  161  A    between atoms: _401  and  _403
REMARK  162  A    between atoms: _403  and  _404
REMARK  163  A    between atoms: _403  and  _406
REMARK  164  A    between atoms: _406  and  _407
REMARK  165  A    between atoms: _410  and  _412
REMARK  166  A    between atoms: _412  and  _413
REMARK  167  A    between atoms: _412  and  _415
REMARK  168  A    between atoms: _415  and  _416
REMARK  169  A    between atoms: _418  and  _420
REMARK  170  A    between atoms: _420  and  _421
REMARK  171  A    between atoms: _423  and  _425
REMARK  172  A    between atoms: _425  and  _426
REMARK  173  A    between atoms: _425  and  _428
REMARK  174  A    between atoms: _428  and  _429
REMARK  175  A    between atoms: _434  and  _435
REMARK  176  A    between atoms: _437  and  _439
REMARK  177  A    between atoms: _439  and  _440
REMARK  178  A    between atoms: _439  and  _442
REMARK  179  A    between atoms: _442  and  _443
REMARK  180  A    between atoms: _443  and  _444
REMARK  181  A    between atoms: _449  and  _451
REMARK  182  A    between atoms: _451  and  _452
REMARK  183  A    between atoms: _451  and  _454
REMARK  184  A    between atoms: _454  and  _455
REMARK  185  A    between atoms: _455  and  _456
REMARK  186  A    between atoms: _461  and  _463
REMARK  187  A    between atoms: _463  and  _464
REMARK  188  A    between atoms: _463  and  _466
REMARK  189  A    between atoms: _466  and  _467
REMARK  190  A    between atoms: _472  and  _473
REMARK  191  A    between atoms: _475  and  _477
REMARK  192  A    between atoms: _477  and  _478
REMARK  193  A    between atoms: _481  and  _483
REMARK  194  A    between atoms: _483  and  _484
REMARK  195  A    between atoms: _483  and  _486
REMARK  196  A    between atoms: _486  and  _487
REMARK  197  A    between atoms: _492  and  _493
REMARK  198  A    between atoms: _495  and  _497
REMARK  199  A    between atoms: _497  and  _498
REMARK  200  A    between atoms: _497  and  _500
REMARK  201  A    between atoms: _500  and  _501
REMARK  202  A    between atoms: _506  and  _507
REMARK  203  A    between atoms: _509  and  _511
REMARK  204  A    between atoms: _511  and  _512
REMARK  205  A    between atoms: _511  and  _514
REMARK  206  A    between atoms: _514  and  _515
REMARK  207  A    between atoms: _518  and  _520
REMARK  208  A    between atoms: _520  and  _521
REMARK  209  A    between atoms: _520  and  _523
REMARK  210  A    between atoms: _523  and  _524
REMARK  211  A    between atoms: _534  and  _536
REMARK  212  A    between atoms: _536  and  _537
REMARK  213  A    between atoms: _540  and  _542
REMARK  214  A    between atoms: _542  and  _543
REMARK  215  A    between atoms: _546  and  _548
REMARK  216  A    between atoms: _548  and  _549
REMARK  217  A    between atoms: _548  and  _551
REMARK  218  A    between atoms: _551  and  _552
REMARK  219  A    between atoms: _555  and  _557
REMARK  220  A    between atoms: _557  and  _558
REMARK  221  A    between atoms: _557  and  _560
REMARK  222  A    between atoms: _560  and  _561
REMARK  223  A    between atoms: _564  and  _566
REMARK  224  A    between atoms: _566  and  _567
REMARK  225  A    between atoms: _566  and  _569
REMARK  226  A    between atoms: _569  and  _570
REMARK  227  A    between atoms: _573  and  _575
REMARK  228  A    between atoms: _575  and  _576
REMARK  229  A    between atoms: _575  and  _578
REMARK  230  A    between atoms: _578  and  _579
REMARK  231  A    between atoms: _579  and  _580
REMARK  232  A    between atoms: _580  and  _581
REMARK  233  A    between atoms: _581  and  _582
REMARK  234  A    between atoms: _586  and  _588
REMARK  235  A    between atoms: _588  and  _589
REMARK  236  A    between atoms: _588  and  _591
REMARK  237  A    between atoms: _591  and  _592
REMARK  238  A    between atoms: _597  and  _599
REMARK  239  A    between atoms: _599  and  _600
REMARK  240  A    between atoms: _599  and  _602
REMARK  241  A    between atoms: _602  and  _603
REMARK  242  A    between atoms: _603  and  _604
REMARK  243  A    between atoms: _604  and  _605
REMARK  244  A    between atoms: _605  and  _606
REMARK  245  A    between atoms: _610  and  _612
REMARK  246  A    between atoms: _612  and  _613
REMARK  247  A    between atoms: _612  and  _615
REMARK  248  A    between atoms: _615  and  _616
REMARK  249  A    between atoms: _626  and  _628
REMARK  250  A    between atoms: _628  and  _629
REMARK  251  A    between atoms: _628  and  _631
REMARK  252  A    between atoms: _631  and  _632
REMARK  253  A    between atoms: _632  and  _633
REMARK  254  A    between atoms: _636  and  _638
REMARK  255  A    between atoms: _638  and  _639
REMARK  256  A    between atoms: _642  and  _644
REMARK  257  A    between atoms: _644  and  _645
REMARK  258  A    between atoms: _647  and  _649
REMARK  259  A    between atoms: _649  and  _650
REMARK  260  A    between atoms: _649  and  _652
REMARK  261  A    between atoms: _652  and  _653
REMARK  262  A    between atoms: _653  and  _654
REMARK  263  A    between atoms: _657  and  _659
REMARK  264  A    between atoms: _659  and  _660
REMARK  265  A    between atoms: _663  and  _665
REMARK  266  A    between atoms: _665  and  _666
REMARK  267  A    between atoms: _665  and  _668
REMARK  268  A    between atoms: _668  and  _669
REMARK  269  A    between atoms: _669  and  _670
REMARK  270  A    between atoms: _673  and  _675
REMARK  271  A    between atoms: _675  and  _676
REMARK  272  A    between atoms: _675  and  _678
REMARK  273  A    between atoms: _678  and  _679
REMARK  274  A    between atoms: _679  and  _680
REMARK  275  A    between atoms: _680  and  _681
REMARK  276  A    between atoms: _690  and  _692
REMARK  277  A    between atoms: _692  and  _693
REMARK  278  A    between atoms: _692  and  _695
REMARK  279  A    between atoms: _695  and  _696
REMARK  280  A    between atoms: _699  and  _701
REMARK  281  A    between atoms: _701  and  _702
REMARK  282  A    between atoms: _701  and  _704
REMARK  283  A    between atoms: _704  and  _705
REMARK  284  A    between atoms: _705  and  _706
REMARK  285  A    between atoms: _706  and  _707
REMARK  286  A    between atoms: _716  and  _718
REMARK  287  A    between atoms: _718  and  _719
REMARK  288  A    between atoms: _722  and  _724
REMARK  289  A    between atoms: _724  and  _725
REMARK  290  A    between atoms: _724  and  _727
REMARK  291  A    between atoms: _727  and  _728
REMARK  292  A    between atoms: _733  and  _734
REMARK  293  A    between atoms: _736  and  _738
REMARK  294  A    between atoms: _738  and  _739
REMARK  295  A    between atoms: _738  and  _741
REMARK  296  A    between atoms: _741  and  _742
REMARK  297  A    between atoms: _745  and  _747
REMARK  298  A    between atoms: _747  and  _748
REMARK  299  A    between atoms: _747  and  _750
REMARK  300  A    between atoms: _750  and  _751
REMARK  301  A    between atoms: _754  and  _756
REMARK  302  A    between atoms: _756  and  _757
REMARK  303  A    between atoms: _756  and  _759
REMARK  304  A    between atoms: _761  and  _763
REMARK  305  A    between atoms: _763  and  _764
REMARK  306  A    between atoms: _763  and  _766
REMARK  307  A    between atoms: _769  and  _771
REMARK  308  A    between atoms: _771  and  _772
REMARK  309  A    between atoms: _771  and  _774
REMARK  310  A    between atoms: _774  and  _775
REMARK  311  A    between atoms: _775  and  _776
REMARK  312  A    between atoms: _779  and  _781
REMARK  313  A    between atoms: _781  and  _782
REMARK  314  A    between atoms: _781  and  _784
REMARK  315  A    between atoms: _784  and  _785
REMARK  316  A    between atoms: _795  and  _797
REMARK  317  A    between atoms: _797  and  _798
REMARK  318  A    between atoms: _797  and  _800
REMARK  319  A    between atoms: _800  and  _801
REMARK  320  A    between atoms: _804  and  _806
REMARK  321  A    between atoms: _806  and  _807
REMARK  322  A    between atoms: _806  and  _809
REMARK  323  A    between atoms: _809  and  _810
REMARK  324  A    between atoms: _810  and  _811
REMARK  325  A    between atoms: _811  and  _812
REMARK  326  A    between atoms: _821  and  _823
REMARK  327  A    between atoms: _823  and  _824
REMARK  328  A    between atoms: _823  and  _826
REMARK  329  A    between atoms: _826  and  _827
REMARK  330  A    between atoms: _832  and  _833
REMARK                            x       y       z     vdW  Elec       q    Type
REMARK                         _______ _______ _______ _____ _____    ______ ____
ROOT
ATOM      1  O   HOH     1      38.924  60.782  -4.974  0.00  0.00    +0.000 OA
ENDROOT
TORSDOF 0
REMARK  Name = ../refined-set-2016/1fzm/1fzm_pocket.pdb
REMARK  330 active torsions:
REMARK  status: ('A' for Active; 'I' for Inactive)
REMARK    1  A    between atoms: _1  and  _3
REMARK    2  A    between atoms: _3  and  _4
REMARK    3  A    between atoms: _3  and  _6
REMARK    4  A    between atoms: _6  and  _7
REMARK    5  A    between atoms: _10  and  _12
REMARK    6  A    between atoms: _12  and  _13
REMARK    7  A    between atoms: _12  and  _15
REMARK    8  A    between atoms: _15  and  _16
REMARK    9  A    between atoms: _16  and  _17
REMARK   10  A    between atoms: _17  and  _18
REMARK   11  A    between atoms: _27  and  _29
REMARK   12  A    between atoms: _29  and  _30
REMARK   13  A    between atoms: _29  and  _32
REMARK   14  A    between atoms: _32  and  _33
REMARK   15  A    between atoms: _38  and  _39
REMARK   16  A    between atoms: _41  and  _43
REMARK   17  A    between atoms: _43  and  _44
REMARK   18  A    between atoms: _43  and  _46
REMARK   19  A    between atoms: _46  and  _47
REMARK   20  A    between atoms: _53  and  _55
REMARK   21  A    between atoms: _55  and  _56
REMARK   22  A    between atoms: _55  and  _58
REMARK   23  A    between atoms: _61  and  _63
REMARK   24  A    between atoms: _63  and  _64
REMARK   25  A    between atoms: _63  and  _66
REMARK   26  A    between atoms: _66  and  _67
REMARK   27  A    between atoms: _70  and  _72
REMARK   28  A    between atoms: _72  and  _73
REMARK   29  A    between atoms: _72  and  _75
REMARK   30  A    between atoms: _75  and  _76
REMARK   31  A    between atoms: _82  and  _84
REMARK   32  A    between atoms: _84  and  _85
REMARK   33  A    between atoms: _84  and  _87
REMARK   34  A    between atoms: _87  and  _88
REMARK   35  A    between atoms: _90  and  _92
REMARK   36  A    between atoms: _92  and  _93
REMARK   37  A    between atoms: _92  and  _95
REMARK   38  A    between atoms: _98  and  _100
REMARK   39  A    between atoms: _100  and  _101
REMARK   40  A    between atoms: _100  and  _103
REMARK   41  A    between atoms: _103  and  _104
REMARK   42  A    between atoms: _110  and  _112
REMARK   43  A    between atoms: _112  and  _113
REMARK   44  A    between atoms: _112  and  _115
REMARK   45  A    between atoms: _118  and  _120
REMARK   46  A    between atoms: _120  and  _121
REMARK   47  A    between atoms: _120  and  _123
REMARK   48  A    between atoms: _123  and  _124
REMARK   49  A    between atoms: _129  and  _130
REMARK   50  A    between atoms: _132  and  _134
REMARK   51  A    between atoms: _134  and  _135
REMARK   52  A    between atoms: _134  and  _137
REMARK   53  A    between atoms: _137  and  _138
REMARK   54  A    between atoms: _138  and  _139
REMARK   55  A    between atoms: _141  and  _143
REMARK   56  A    between atoms: _143  and  _144
REMARK   57  A    between atoms: _143  and  _146
REMARK   58  A    between atoms: _146  and  _147
REMARK   59  A    between atoms: _147  and  _148
REMARK   60  A    between atoms: _151  and  _153
REMARK   61  A    between atoms: _153  and  _154
REMARK   62  A    between atoms: _156  and  _158
REMARK   63  A    between atoms: _158  and  _159
REMARK   64  A    between atoms: _158  and  _161
REMARK   65  A    between atoms: _161  and  _162
REMARK   66  A    between atoms: _162  and  _163
REMARK   67  A    between atoms: _166  and  _168
REMARK   68  A    between atoms: _168  and  _169
REMARK   69  A    between atoms: _168  and  _171
REMARK   70  A    between atoms: _171  and  _172
REMARK   71  A    between atoms: _177  and  _178
REMARK   72  A    between atoms: _180  and  _182
REMARK   73  A    between atoms: _182  and  _183
REMARK   74  A    between atoms: _182  and  _185
REMARK   75  A    between atoms: _185  and  _186
REMARK   76  A    between atoms: _196  and  _198
REMARK   77  A    between atoms: _198  and  _199
REMARK   78  A    between atoms: _198  and  _201
REMARK   79  A    between atoms: _201  and  _202
REMARK   80  A    between atoms: _202  and  _203
REMARK   81  A    between atoms: _203  and  _204
REMARK   82  A    between atoms: _213  and  _215
REMARK   83  A    between atoms: _215  and  _216
REMARK   84  A    between atoms: _215  and  _218
REMARK   85  A    between atoms: _218  and  _219
REMARK   86  A    between atoms: _219  and  _220
REMARK   87  A    between atoms: _223  and  _225
REMARK   88  A    between atoms: _225  and  _226
REMARK   89  A    between atoms: _225  and  _228
REMARK   90  A    between atoms: _228  and  _229
REMARK   91  A    between atoms: _229  and  _230
REMARK   92  A    between atoms: _235  and  _237
REMARK   93  A    between atoms: _237  and  _238
REMARK   94  A    between atoms: _237  and  _240
REMARK   95  A    between atoms: _240  and  _241
REMARK   96  A    between atoms: _241  and  _242
REMARK   97  A    between atoms: _242  and  _243
REMARK   98  A    between atoms: _243  and  _244
REMARK   99  A    between atoms: _248  and  _250
REMARK  100  A    between atoms: _250  and  _251
REMARK  101  A    between atoms: _254  and  _256
REMARK  102  A    between atoms: _256  and  _257
REMARK  103  A    between atoms: _259  and  _261
REMARK  104  A    between atoms: _261  and  _262
REMARK  105  A    between atoms: _261  and  _264
REMARK  106  A    between atoms: _264  and  _265
REMARK  107  A    between atoms: _270  and  _272
REMARK  108  A    between atoms: _272  and  _273
REMARK  109  A    between atoms: _272  and  _275
REMARK  110  A    between atoms: _275  and  _276
REMARK  111  A    between atoms: _276  and  _277
REMARK  112  A    between atoms: _280  and  _282
REMARK  113  A    between atoms: _282  and  _283
REMARK  114  A    between atoms: _282  and  _285
REMARK  115  A    between atoms: _285  and  _286
REMARK  116  A    between atoms: _288  and  _290
REMARK  117  A    between atoms: _290  and  _291
REMARK  118  A    between atoms: _290  and  _293
REMARK  119  A    between atoms: _293  and  _294
REMARK  120  A    between atoms: _300  and  _302
REMARK  121  A    between atoms: _302  and  _303
REMARK  122  A    between atoms: _302  and  _305
REMARK  123  A    between atoms: _308  and  _310
REMARK  124  A    between atoms: _310  and  _311
REMARK  125  A    between atoms: _310  and  _313
REMARK  126  A    between atoms: _313  and  _314
REMARK  127  A    between atoms: _317  and  _319
REMARK  128  A    between atoms: _319  and  _320
REMARK  129  A    between atoms: _319  and  _322
REMARK  130  A    between atoms: _322  and  _323
REMARK  131  A    between atoms: _326  and  _328
REMARK  132  A    between atoms: _328  and  _329
REMARK  133  A    between atoms: _328  and  _331
REMARK  134  A    between atoms: _331  and  _332
REMARK  135  A    between atoms: _335  and  _337
REMARK  136  A    between atoms: _337  and  _338
REMARK  137  A    between atoms: _337  and  _340
REMARK  138  A    between atoms: _340  and  _341
REMARK  139  A    between atoms: _344  and  _346
REMARK  140  A    between atoms: _346  and  _347
REMARK  141  A    between atoms: _346  and  _349
REMARK  142  A    between atoms: _349  and  _350
REMARK  143  A    between atoms: _355  and  _356
REMARK  144  A    between atoms: _358  and  _360
REMARK  145  A    between atoms: _360  and  _361
REMARK  146  A    between atoms: _360  and  _363
REMARK  147  A    between atoms: _363  and  _364
REMARK  148  A    between atoms: _369  and  _370
REMARK  149  A    between atoms: _372  and  _374
REMARK  150  A    between atoms: _374  and  _375
REMARK  151  A    between atoms: _374  and  _377
REMARK  152  A    between atoms: _377  and  _378
REMARK  153  A    between atoms: _381  and  _383
REMARK  154  A    between atoms: _383  and  _384
REMARK  155  A    between atoms: _383  and  _386
REMARK  156  A    between atoms: _386  and  _387
REMARK  157  A    between atoms: _387  and  _388
REMARK  158  A    between atoms: _393  and  _395
REMARK  159  A    between atoms: _395  and  _396
REMARK  160  A    between atoms: _395  and  _398
REMARK  161  A    between atoms: _401  and  _403
REMARK  162  A    between atoms: _403  and  _404
REMARK  163  A    between atoms: _403  and  _406
REMARK  164  A    between atoms: _406  and  _407
REMARK  165  A    between atoms: _410  and  _412
REMARK  166  A    between atoms: _412  and  _413
REMARK  167  A    between atoms: _412  and  _415
REMARK  168  A    between atoms: _415  and  _416
REMARK  169  A    between atoms: _418  and  _420
REMARK  170  A    between atoms: _420  and  _421
REMARK  171  A    between atoms: _423  and  _425
REMARK  172  A    between atoms: _425  and  _426
REMARK  173  A    between atoms: _425  and  _428
REMARK  174  A    between atoms: _428  and  _429
REMARK  175  A    between atoms: _434  and  _435
REMARK  176  A    between atoms: _437  and  _439
REMARK  177  A    between atoms: _439  and  _440
REMARK  178  A    between atoms: _439  and  _442
REMARK  179  A    between atoms: _442  and  _443
REMARK  180  A    between atoms: _443  and  _444
REMARK  181  A    between atoms: _449  and  _451
REMARK  182  A    between atoms: _451  and  _452
REMARK  183  A    between atoms: _451  and  _454
REMARK  184  A    between atoms: _454  and  _455
REMARK  185  A    between atoms: _455  and  _456
REMARK  186  A    between atoms: _461  and  _463
REMARK  187  A    between atoms: _463  and  _464
REMARK  188  A    between atoms: _463  and  _466
REMARK  189  A    between atoms: _466  and  _467
REMARK  190  A    between atoms: _472  and  _473
REMARK  191  A    between atoms: _475  and  _477
REMARK  192  A    between atoms: _477  and  _478
REMARK  193  A    between atoms: _481  and  _483
REMARK  194  A    between atoms: _483  and  _484
REMARK  195  A    between atoms: _483  and  _486
REMARK  196  A    between atoms: _486  and  _487
REMARK  197  A    between atoms: _492  and  _493
REMARK  198  A    between atoms: _495  and  _497
REMARK  199  A    between atoms: _497  and  _498
REMARK  200  A    between atoms: _497  and  _500
REMARK  201  A    between atoms: _500  and  _501
REMARK  202  A    between atoms: _506  and  _507
REMARK  203  A    between atoms: _509  and  _511
REMARK  204  A    between atoms: _511  and  _512
REMARK  205  A    between atoms: _511  and  _514
REMARK  206  A    between atoms: _514  and  _515
REMARK  207  A    between atoms: _518  and  _520
REMARK  208  A    between atoms: _520  and  _521
REMARK  209  A    between atoms: _520  and  _523
REMARK  210  A    between atoms: _523  and  _524
REMARK  211  A    between atoms: _534  and  _536
REMARK  212  A    between atoms: _536  and  _537
REMARK  213  A    between atoms: _540  and  _542
REMARK  214  A    between atoms: _542  and  _543
REMARK  215  A    between atoms: _546  and  _548
REMARK  216  A    between atoms: _548  and  _549
REMARK  217  A    between atoms: _548  and  _551
REMARK  218  A    between atoms: _551  and  _552
REMARK  219  A    between atoms: _555  and  _557
REMARK  220  A    between atoms: _557  and  _558
REMARK  221  A    between atoms: _557  and  _560
REMARK  222  A    between atoms: _560  and  _561
REMARK  223  A    between atoms: _564  and  _566
REMARK  224  A    between atoms: _566  and  _567
REMARK  225  A    between atoms: _566  and  _569
REMARK  226  A    between atoms: _569  and  _570
REMARK  227  A    between atoms: _573  and  _575
REMARK  228  A    between atoms: _575  and  _576
REMARK  229  A    between atoms: _575  and  _578
REMARK  230  A    between atoms: _578  and  _579
REMARK  231  A    between atoms: _579  and  _580
REMARK  232  A    between atoms: _580  and  _581
REMARK  233  A    between atoms: _581  and  _582
REMARK  234  A    between atoms: _586  and  _588
REMARK  235  A    between atoms: _588  and  _589
REMARK  236  A    between atoms: _588  and  _591
REMARK  237  A    between atoms: _591  and  _592
REMARK  238  A    between atoms: _597  and  _599
REMARK  239  A    between atoms: _599  and  _600
REMARK  240  A    between atoms: _599  and  _602
REMARK  241  A    between atoms: _602  and  _603
REMARK  242  A    between atoms: _603  and  _604
REMARK  243  A    between atoms: _604  and  _605
REMARK  244  A    between atoms: _605  and  _606
REMARK  245  A    between atoms: _610  and  _612
REMARK  246  A    between atoms: _612  and  _613
REMARK  247  A    between atoms: _612  and  _615
REMARK  248  A    between atoms: _615  and  _616
REMARK  249  A    between atoms: _626  and  _628
REMARK  250  A    between atoms: _628  and  _629
REMARK  251  A    between atoms: _628  and  _631
REMARK  252  A    between atoms: _631  and  _632
REMARK  253  A    between atoms: _632  and  _633
REMARK  254  A    between atoms: _636  and  _638
REMARK  255  A    between atoms: _638  and  _639
REMARK  256  A    between atoms: _642  and  _644
REMARK  257  A    between atoms: _644  and  _645
REMARK  258  A    between atoms: _647  and  _649
REMARK  259  A    between atoms: _649  and  _650
REMARK  260  A    between atoms: _649  and  _652
REMARK  261  A    between atoms: _652  and  _653
REMARK  262  A    between atoms: _653  and  _654
REMARK  263  A    between atoms: _657  and  _659
REMARK  264  A    between atoms: _659  and  _660
REMARK  265  A    between atoms: _663  and  _665
REMARK  266  A    between atoms: _665  and  _666
REMARK  267  A    between atoms: _665  and  _668
REMARK  268  A    between atoms: _668  and  _669
REMARK  269  A    between atoms: _669  and  _670
REMARK  270  A    between atoms: _673  and  _675
REMARK  271  A    between atoms: _675  and  _676
REMARK  272  A    between atoms: _675  and  _678
REMARK  273  A    between atoms: _678  and  _679
REMARK  274  A    between atoms: _679  and  _680
REMARK  275  A    between atoms: _680  and  _681
REMARK  276  A    between atoms: _690  and  _692
REMARK  277  A    between atoms: _692  and  _693
REMARK  278  A    between atoms: _692  and  _695
REMARK  279  A    between atoms: _695  and  _696
REMARK  280  A    between atoms: _699  and  _701
REMARK  281  A    between atoms: _701  and  _702
REMARK  282  A    between atoms: _701  and  _704
REMARK  283  A    between atoms: _704  and  _705
REMARK  284  A    between atoms: _705  and  _706
REMARK  285  A    between atoms: _706  and  _707
REMARK  286  A    between atoms: _716  and  _718
REMARK  287  A    between atoms: _718  and  _719
REMARK  288  A    between atoms: _722  and  _724
REMARK  289  A    between atoms: _724  and  _725
REMARK  290  A    between atoms: _724  and  _727
REMARK  291  A    between atoms: _727  and  _728
REMARK  292  A    between atoms: _733  and  _734
REMARK  293  A    between atoms: _736  and  _738
REMARK  294  A    between atoms: _738  and  _739
REMARK  295  A    between atoms: _738  and  _741
REMARK  296  A    between atoms: _741  and  _742
REMARK  297  A    between atoms: _745  and  _747
REMARK  298  A    between atoms: _747  and  _748
REMARK  299  A    between atoms: _747  and  _750
REMARK  300  A    between atoms: _750  and  _751
REMARK  301  A    between atoms: _754  and  _756
REMARK  302  A    between atoms: _756  and  _757
REMARK  303  A    between atoms: _756  and  _759
REMARK  304  A    between atoms: _761  and  _763
REMARK  305  A    between atoms: _763  and  _764
REMARK  306  A    between atoms: _763  and  _766
REMARK  307  A    between atoms: _769  and  _771
REMARK  308  A    between atoms: _771  and  _772
REMARK  309  A    between atoms: _771  and  _774
REMARK  310  A    between atoms: _774  and  _775
REMARK  311  A    between atoms: _775  and  _776
REMARK  312  A    between atoms: _779  and  _781
REMARK  313  A    between atoms: _781  and  _782
REMARK  314  A    between atoms: _781  and  _784
REMARK  315  A    between atoms: _784  and  _785
REMARK  316  A    between atoms: _795  and  _797
REMARK  317  A    between atoms: _797  and  _798
REMARK  318  A    between atoms: _797  and  _800
REMARK  319  A    between atoms: _800  and  _801
REMARK  320  A    between atoms: _804  and  _806
REMARK  321  A    between atoms: _806  and  _807
REMARK  322  A    between atoms: _806  and  _809
REMARK  323  A    between atoms: _809  and  _810
REMARK  324  A    between atoms: _810  and  _811
REMARK  325  A    between atoms: _811  and  _812
REMARK  326  A    between atoms: _821  and  _823
REMARK  327  A    between atoms: _823  and  _824
REMARK  328  A    between atoms: _823  and  _826
REMARK  329  A    between atoms: _826  and  _827
REMARK  330  A    between atoms: _832  and  _833
REMARK                            x       y       z     vdW  Elec       q    Type
REMARK                         _______ _______ _______ _____ _____    ______ ____
ROOT
ATOM      1  O   HOH     1      34.609  58.778 -13.823  0.00  0.00    +0.000 OA
ENDROOT
TORSDOF 0
REMARK  Name = ../refined-set-2016/1fzm/1fzm_pocket.pdb
REMARK  330 active torsions:
REMARK  status: ('A' for Active; 'I' for Inactive)
REMARK    1  A    between atoms: _1  and  _3
REMARK    2  A    between atoms: _3  and  _4
REMARK    3  A    between atoms: _3  and  _6
REMARK    4  A    between atoms: _6  and  _7
REMARK    5  A    between atoms: _10  and  _12
REMARK    6  A    between atoms: _12  and  _13
REMARK    7  A    between atoms: _12  and  _15
REMARK    8  A    between atoms: _15  and  _16
REMARK    9  A    between atoms: _16  and  _17
REMARK   10  A    between atoms: _17  and  _18
REMARK   11  A    between atoms: _27  and  _29
REMARK   12  A    between atoms: _29  and  _30
REMARK   13  A    between atoms: _29  and  _32
REMARK   14  A    between atoms: _32  and  _33
REMARK   15  A    between atoms: _38  and  _39
REMARK   16  A    between atoms: _41  and  _43
REMARK   17  A    between atoms: _43  and  _44
REMARK   18  A    between atoms: _43  and  _46
REMARK   19  A    between atoms: _46  and  _47
REMARK   20  A    between atoms: _53  and  _55
REMARK   21  A    between atoms: _55  and  _56
REMARK   22  A    between atoms: _55  and  _58
REMARK   23  A    between atoms: _61  and  _63
REMARK   24  A    between atoms: _63  and  _64
REMARK   25  A    between atoms: _63  and  _66
REMARK   26  A    between atoms: _66  and  _67
REMARK   27  A    between atoms: _70  and  _72
REMARK   28  A    between atoms: _72  and  _73
REMARK   29  A    between atoms: _72  and  _75
REMARK   30  A    between atoms: _75  and  _76
REMARK   31  A    between atoms: _82  and  _84
REMARK   32  A    between atoms: _84  and  _85
REMARK   33  A    between atoms: _84  and  _87
REMARK   34  A    between atoms: _87  and  _88
REMARK   35  A    between atoms: _90  and  _92
REMARK   36  A    between atoms: _92  and  _93
REMARK   37  A    between atoms: _92  and  _95
REMARK   38  A    between atoms: _98  and  _100
REMARK   39  A    between atoms: _100  and  _101
REMARK   40  A    between atoms: _100  and  _103
REMARK   41  A    between atoms: _103  and  _104
REMARK   42  A    between atoms: _110  and  _112
REMARK   43  A    between atoms: _112  and  _113
REMARK   44  A    between atoms: _112  and  _115
REMARK   45  A    between atoms: _118  and  _120
REMARK   46  A    between atoms: _120  and  _121
REMARK   47  A    between atoms: _120  and  _123
REMARK   48  A    between atoms: _123  and  _124
REMARK   49  A    between atoms: _129  and  _130
REMARK   50  A    between atoms: _132  and  _134
REMARK   51  A    between atoms: _134  and  _135
REMARK   52  A    between atoms: _134  and  _137
REMARK   53  A    between atoms: _137  and  _138
REMARK   54  A    between atoms: _138  and  _139
REMARK   55  A    between atoms: _141  and  _143
REMARK   56  A    between atoms: _143  and  _144
REMARK   57  A    between atoms: _143  and  _146
REMARK   58  A    between atoms: _146  and  _147
REMARK   59  A    between atoms: _147  and  _148
REMARK   60  A    between atoms: _151  and  _153
REMARK   61  A    between atoms: _153  and  _154
REMARK   62  A    between atoms: _156  and  _158
REMARK   63  A    between atoms: _158  and  _159
REMARK   64  A    between atoms: _158  and  _161
REMARK   65  A    between atoms: _161  and  _162
REMARK   66  A    between atoms: _162  and  _163
REMARK   67  A    between atoms: _166  and  _168
REMARK   68  A    between atoms: _168  and  _169
REMARK   69  A    between atoms: _168  and  _171
REMARK   70  A    between atoms: _171  and  _172
REMARK   71  A    between atoms: _177  and  _178
REMARK   72  A    between atoms: _180  and  _182
REMARK   73  A    between atoms: _182  and  _183
REMARK   74  A    between atoms: _182  and  _185
REMARK   75  A    between atoms: _185  and  _186
REMARK   76  A    between atoms: _196  and  _198
REMARK   77  A    between atoms: _198  and  _199
REMARK   78  A    between atoms: _198  and  _201
REMARK   79  A    between atoms: _201  and  _202
REMARK   80  A    between atoms: _202  and  _203
REMARK   81  A    between atoms: _203  and  _204
REMARK   82  A    between atoms: _213  and  _215
REMARK   83  A    between atoms: _215  and  _216
REMARK   84  A    between atoms: _215  and  _218
REMARK   85  A    between atoms: _218  and  _219
REMARK   86  A    between atoms: _219  and  _220
REMARK   87  A    between atoms: _223  and  _225
REMARK   88  A    between atoms: _225  and  _226
REMARK   89  A    between atoms: _225  and  _228
REMARK   90  A    between atoms: _228  and  _229
REMARK   91  A    between atoms: _229  and  _230
REMARK   92  A    between atoms: _235  and  _237
REMARK   93  A    between atoms: _237  and  _238
REMARK   94  A    between atoms: _237  and  _240
REMARK   95  A    between atoms: _240  and  _241
REMARK   96  A    between atoms: _241  and  _242
REMARK   97  A    between atoms: _242  and  _243
REMARK   98  A    between atoms: _243  and  _244
REMARK   99  A    between atoms: _248  and  _250
REMARK  100  A    between atoms: _250  and  _251
REMARK  101  A    between atoms: _254  and  _256
REMARK  102  A    between atoms: _256  and  _257
REMARK  103  A    between atoms: _259  and  _261
REMARK  104  A    between atoms: _261  and  _262
REMARK  105  A    between atoms: _261  and  _264
REMARK  106  A    between atoms: _264  and  _265
REMARK  107  A    between atoms: _270  and  _272
REMARK  108  A    between atoms: _272  and  _273
REMARK  109  A    between atoms: _272  and  _275
REMARK  110  A    between atoms: _275  and  _276
REMARK  111  A    between atoms: _276  and  _277
REMARK  112  A    between atoms: _280  and  _282
REMARK  113  A    between atoms: _282  and  _283
REMARK  114  A    between atoms: _282  and  _285
REMARK  115  A    between atoms: _285  and  _286
REMARK  116  A    between atoms: _288  and  _290
REMARK  117  A    between atoms: _290  and  _291
REMARK  118  A    between atoms: _290  and  _293
REMARK  119  A    between atoms: _293  and  _294
REMARK  120  A    between atoms: _300  and  _302
REMARK  121  A    between atoms: _302  and  _303
REMARK  122  A    between atoms: _302  and  _305
REMARK  123  A    between atoms: _308  and  _310
REMARK  124  A    between atoms: _310  and  _311
REMARK  125  A    between atoms: _310  and  _313
REMARK  126  A    between atoms: _313  and  _314
REMARK  127  A    between atoms: _317  and  _319
REMARK  128  A    between atoms: _319  and  _320
REMARK  129  A    between atoms: _319  and  _322
REMARK  130  A    between atoms: _322  and  _323
REMARK  131  A    between atoms: _326  and  _328
REMARK  132  A    between atoms: _328  and  _329
REMARK  133  A    between atoms: _328  and  _331
REMARK  134  A    between atoms: _331  and  _332
REMARK  135  A    between atoms: _335  and  _337
REMARK  136  A    between atoms: _337  and  _338
REMARK  137  A    between atoms: _337  and  _340
REMARK  138  A    between atoms: _340  and  _341
REMARK  139  A    between atoms: _344  and  _346
REMARK  140  A    between atoms: _346  and  _347
REMARK  141  A    between atoms: _346  and  _349
REMARK  142  A    between atoms: _349  and  _350
REMARK  143  A    between atoms: _355  and  _356
REMARK  144  A    between atoms: _358  and  _360
REMARK  145  A    between atoms: _360  and  _361
REMARK  146  A    between atoms: _360  and  _363
REMARK  147  A    between atoms: _363  and  _364
REMARK  148  A    between atoms: _369  and  _370
REMARK  149  A    between atoms: _372  and  _374
REMARK  150  A    between atoms: _374  and  _375
REMARK  151  A    between atoms: _374  and  _377
REMARK  152  A    between atoms: _377  and  _378
REMARK  153  A    between atoms: _381  and  _383
REMARK  154  A    between atoms: _383  and  _384
REMARK  155  A    between atoms: _383  and  _386
REMARK  156  A    between atoms: _386  and  _387
REMARK  157  A    between atoms: _387  and  _388
REMARK  158  A    between atoms: _393  and  _395
REMARK  159  A    between atoms: _395  and  _396
REMARK  160  A    between atoms: _395  and  _398
REMARK  161  A    between atoms: _401  and  _403
REMARK  162  A    between atoms: _403  and  _404
REMARK  163  A    between atoms: _403  and  _406
REMARK  164  A    between atoms: _406  and  _407
REMARK  165  A    between atoms: _410  and  _412
REMARK  166  A    between atoms: _412  and  _413
REMARK  167  A    between atoms: _412  and  _415
REMARK  168  A    between atoms: _415  and  _416
REMARK  169  A    between atoms: _418  and  _420
REMARK  170  A    between atoms: _420  and  _421
REMARK  171  A    between atoms: _423  and  _425
REMARK  172  A    between atoms: _425  and  _426
REMARK  173  A    between atoms: _425  and  _428
REMARK  174  A    between atoms: _428  and  _429
REMARK  175  A    between atoms: _434  and  _435
REMARK  176  A    between atoms: _437  and  _439
REMARK  177  A    between atoms: _439  and  _440
REMARK  178  A    between atoms: _439  and  _442
REMARK  179  A    between atoms: _442  and  _443
REMARK  180  A    between atoms: _443  and  _444
REMARK  181  A    between atoms: _449  and  _451
REMARK  182  A    between atoms: _451  and  _452
REMARK  183  A    between atoms: _451  and  _454
REMARK  184  A    between atoms: _454  and  _455
REMARK  185  A    between atoms: _455  and  _456
REMARK  186  A    between atoms: _461  and  _463
REMARK  187  A    between atoms: _463  and  _464
REMARK  188  A    between atoms: _463  and  _466
REMARK  189  A    between atoms: _466  and  _467
REMARK  190  A    between atoms: _472  and  _473
REMARK  191  A    between atoms: _475  and  _477
REMARK  192  A    between atoms: _477  and  _478
REMARK  193  A    between atoms: _481  and  _483
REMARK  194  A    between atoms: _483  and  _484
REMARK  195  A    between atoms: _483  and  _486
REMARK  196  A    between atoms: _486  and  _487
REMARK  197  A    between atoms: _492  and  _493
REMARK  198  A    between atoms: _495  and  _497
REMARK  199  A    between atoms: _497  and  _498
REMARK  200  A    between atoms: _497  and  _500
REMARK  201  A    between atoms: _500  and  _501
REMARK  202  A    between atoms: _506  and  _507
REMARK  203  A    between atoms: _509  and  _511
REMARK  204  A    between atoms: _511  and  _512
REMARK  205  A    between atoms: _511  and  _514
REMARK  206  A    between atoms: _514  and  _515
REMARK  207  A    between atoms: _518  and  _520
REMARK  208  A    between atoms: _520  and  _521
REMARK  209  A    between atoms: _520  and  _523
REMARK  210  A    between atoms: _523  and  _524
REMARK  211  A    between atoms: _534  and  _536
REMARK  212  A    between atoms: _536  and  _537
REMARK  213  A    between atoms: _540  and  _542
REMARK  214  A    between atoms: _542  and  _543
REMARK  215  A    between atoms: _546  and  _548
REMARK  216  A    between atoms: _548  and  _549
REMARK  217  A    between atoms: _548  and  _551
REMARK  218  A    between atoms: _551  and  _552
REMARK  219  A    between atoms: _555  and  _557
REMARK  220  A    between atoms: _557  and  _558
REMARK  221  A    between atoms: _557  and  _560
REMARK  222  A    between atoms: _560  and  _561
REMARK  223  A    between atoms: _564  and  _566
REMARK  224  A    between atoms: _566  and  _567
REMARK  225  A    between atoms: _566  and  _569
REMARK  226  A    between atoms: _569  and  _570
REMARK  227  A    between atoms: _573  and  _575
REMARK  228  A    between atoms: _575  and  _576
REMARK  229  A    between atoms: _575  and  _578
REMARK  230  A    between atoms: _578  and  _579
REMARK  231  A    between atoms: _579  and  _580
REMARK  232  A    between atoms: _580  and  _581
REMARK  233  A    between atoms: _581  and  _582
REMARK  234  A    between atoms: _586  and  _588
REMARK  235  A    between atoms: _588  and  _589
REMARK  236  A    between atoms: _588  and  _591
REMARK  237  A    between atoms: _591  and  _592
REMARK  238  A    between atoms: _597  and  _599
REMARK  239  A    between atoms: _599  and  _600
REMARK  240  A    between atoms: _599  and  _602
REMARK  241  A    between atoms: _602  and  _603
REMARK  242  A    between atoms: _603  and  _604
REMARK  243  A    between atoms: _604  and  _605
REMARK  244  A    between atoms: _605  and  _606
REMARK  245  A    between atoms: _610  and  _612
REMARK  246  A    between atoms: _612  and  _613
REMARK  247  A    between atoms: _612  and  _615
REMARK  248  A    between atoms: _615  and  _616
REMARK  249  A    between atoms: _626  and  _628
REMARK  250  A    between atoms: _628  and  _629
REMARK  251  A    between atoms: _628  and  _631
REMARK  252  A    between atoms: _631  and  _632
REMARK  253  A    between atoms: _632  and  _633
REMARK  254  A    between atoms: _636  and  _638
REMARK  255  A    between atoms: _638  and  _639
REMARK  256  A    between atoms: _642  and  _644
REMARK  257  A    between atoms: _644  and  _645
REMARK  258  A    between atoms: _647  and  _649
REMARK  259  A    between atoms: _649  and  _650
REMARK  260  A    between atoms: _649  and  _652
REMARK  261  A    between atoms: _652  and  _653
REMARK  262  A    between atoms: _653  and  _654
REMARK  263  A    between atoms: _657  and  _659
REMARK  264  A    between atoms: _659  and  _660
REMARK  265  A    between atoms: _663  and  _665
REMARK  266  A    between atoms: _665  and  _666
REMARK  267  A    between atoms: _665  and  _668
REMARK  268  A    between atoms: _668  and  _669
REMARK  269  A    between atoms: _669  and  _670
REMARK  270  A    between atoms: _673  and  _675
REMARK  271  A    between atoms: _675  and  _676
REMARK  272  A    between atoms: _675  and  _678
REMARK  273  A    between atoms: _678  and  _679
REMARK  274  A    between atoms: _679  and  _680
REMARK  275  A    between atoms: _680  and  _681
REMARK  276  A    between atoms: _690  and  _692
REMARK  277  A    between atoms: _692  and  _693
REMARK  278  A    between atoms: _692  and  _695
REMARK  279  A    between atoms: _695  and  _696
REMARK  280  A    between atoms: _699  and  _701
REMARK  281  A    between atoms: _701  and  _702
REMARK  282  A    between atoms: _701  and  _704
REMARK  283  A    between atoms: _704  and  _705
REMARK  284  A    between atoms: _705  and  _706
REMARK  285  A    between atoms: _706  and  _707
REMARK  286  A    between atoms: _716  and  _718
REMARK  287  A    between atoms: _718  and  _719
REMARK  288  A    between atoms: _722  and  _724
REMARK  289  A    between atoms: _724  and  _725
REMARK  290  A    between atoms: _724  and  _727
REMARK  291  A    between atoms: _727  and  _728
REMARK  292  A    between atoms: _733  and  _734
REMARK  293  A    between atoms: _736  and  _738
REMARK  294  A    between atoms: _738  and  _739
REMARK  295  A    between atoms: _738  and  _741
REMARK  296  A    between atoms: _741  and  _742
REMARK  297  A    between atoms: _745  and  _747
REMARK  298  A    between atoms: _747  and  _748
REMARK  299  A    between atoms: _747  and  _750
REMARK  300  A    between atoms: _750  and  _751
REMARK  301  A    between atoms: _754  and  _756
REMARK  302  A    between atoms: _756  and  _757
REMARK  303  A    between atoms: _756  and  _759
REMARK  304  A    between atoms: _761  and  _763
REMARK  305  A    between atoms: _763  and  _764
REMARK  306  A    between atoms: _763  and  _766
REMARK  307  A    between atoms: _769  and  _771
REMARK  308  A    between atoms: _771  and  _772
REMARK  309  A    between atoms: _771  and  _774
REMARK  310  A    between atoms: _774  and  _775
REMARK  311  A    between atoms: _775  and  _776
REMARK  312  A    between atoms: _779  and  _781
REMARK  313  A    between atoms: _781  and  _782
REMARK  314  A    between atoms: _781  and  _784
REMARK  315  A    between atoms: _784  and  _785
REMARK  316  A    between atoms: _795  and  _797
REMARK  317  A    between atoms: _797  and  _798
REMARK  318  A    between atoms: _797  and  _800
REMARK  319  A    between atoms: _800  and  _801
REMARK  320  A    between atoms: _804  and  _806
REMARK  321  A    between atoms: _806  and  _807
REMARK  322  A    between atoms: _806  and  _809
REMARK  323  A    between atoms: _809  and  _810
REMARK  324  A    between atoms: _810  and  _811
REMARK  325  A    between atoms: _811  and  _812
REMARK  326  A    between atoms: _821  and  _823
REMARK  327  A    between atoms: _823  and  _824
REMARK  328  A    between atoms: _823  and  _826
REMARK  329  A    between atoms: _826  and  _827
REMARK  330  A    between atoms: _832  and  _833
REMARK                            x       y       z     vdW  Elec       q    Type
REMARK                         _______ _______ _______ _____ _____    ______ ____
ROOT
ATOM      1  O   HOH     1      35.064  60.092 -10.540  0.00  0.00    +0.000 OA
ENDROOT
TORSDOF 0
REMARK  Name = ../refined-set-2016/1fzm/1fzm_pocket.pdb
REMARK  330 active torsions:
REMARK  status: ('A' for Active; 'I' for Inactive)
REMARK    1  A    between atoms: _1  and  _3
REMARK    2  A    between atoms: _3  and  _4
REMARK    3  A    between atoms: _3  and  _6
REMARK    4  A    between atoms: _6  and  _7
REMARK    5  A    between atoms: _10  and  _12
REMARK    6  A    between atoms: _12  and  _13
REMARK    7  A    between atoms: _12  and  _15
REMARK    8  A    between atoms: _15  and  _16
REMARK    9  A    between atoms: _16  and  _17
REMARK   10  A    between atoms: _17  and  _18
REMARK   11  A    between atoms: _27  and  _29
REMARK   12  A    between atoms: _29  and  _30
REMARK   13  A    between atoms: _29  and  _32
REMARK   14  A    between atoms: _32  and  _33
REMARK   15  A    between atoms: _38  and  _39
REMARK   16  A    between atoms: _41  and  _43
REMARK   17  A    between atoms: _43  and  _44
REMARK   18  A    between atoms: _43  and  _46
REMARK   19  A    between atoms: _46  and  _47
REMARK   20  A    between atoms: _53  and  _55
REMARK   21  A    between atoms: _55  and  _56
REMARK   22  A    between atoms: _55  and  _58
REMARK   23  A    between atoms: _61  and  _63
REMARK   24  A    between atoms: _63  and  _64
REMARK   25  A    between atoms: _63  and  _66
REMARK   26  A    between atoms: _66  and  _67
REMARK   27  A    between atoms: _70  and  _72
REMARK   28  A    between atoms: _72  and  _73
REMARK   29  A    between atoms: _72  and  _75
REMARK   30  A    between atoms: _75  and  _76
REMARK   31  A    between atoms: _82  and  _84
REMARK   32  A    between atoms: _84  and  _85
REMARK   33  A    between atoms: _84  and  _87
REMARK   34  A    between atoms: _87  and  _88
REMARK   35  A    between atoms: _90  and  _92
REMARK   36  A    between atoms: _92  and  _93
REMARK   37  A    between atoms: _92  and  _95
REMARK   38  A    between atoms: _98  and  _100
REMARK   39  A    between atoms: _100  and  _101
REMARK   40  A    between atoms: _100  and  _103
REMARK   41  A    between atoms: _103  and  _104
REMARK   42  A    between atoms: _110  and  _112
REMARK   43  A    between atoms: _112  and  _113
REMARK   44  A    between atoms: _112  and  _115
REMARK   45  A    between atoms: _118  and  _120
REMARK   46  A    between atoms: _120  and  _121
REMARK   47  A    between atoms: _120  and  _123
REMARK   48  A    between atoms: _123  and  _124
REMARK   49  A    between atoms: _129  and  _130
REMARK   50  A    between atoms: _132  and  _134
REMARK   51  A    between atoms: _134  and  _135
REMARK   52  A    between atoms: _134  and  _137
REMARK   53  A    between atoms: _137  and  _138
REMARK   54  A    between atoms: _138  and  _139
REMARK   55  A    between atoms: _141  and  _143
REMARK   56  A    between atoms: _143  and  _144
REMARK   57  A    between atoms: _143  and  _146
REMARK   58  A    between atoms: _146  and  _147
REMARK   59  A    between atoms: _147  and  _148
REMARK   60  A    between atoms: _151  and  _153
REMARK   61  A    between atoms: _153  and  _154
REMARK   62  A    between atoms: _156  and  _158
REMARK   63  A    between atoms: _158  and  _159
REMARK   64  A    between atoms: _158  and  _161
REMARK   65  A    between atoms: _161  and  _162
REMARK   66  A    between atoms: _162  and  _163
REMARK   67  A    between atoms: _166  and  _168
REMARK   68  A    between atoms: _168  and  _169
REMARK   69  A    between atoms: _168  and  _171
REMARK   70  A    between atoms: _171  and  _172
REMARK   71  A    between atoms: _177  and  _178
REMARK   72  A    between atoms: _180  and  _182
REMARK   73  A    between atoms: _182  and  _183
REMARK   74  A    between atoms: _182  and  _185
REMARK   75  A    between atoms: _185  and  _186
REMARK   76  A    between atoms: _196  and  _198
REMARK   77  A    between atoms: _198  and  _199
REMARK   78  A    between atoms: _198  and  _201
REMARK   79  A    between atoms: _201  and  _202
REMARK   80  A    between atoms: _202  and  _203
REMARK   81  A    between atoms: _203  and  _204
REMARK   82  A    between atoms: _213  and  _215
REMARK   83  A    between atoms: _215  and  _216
REMARK   84  A    between atoms: _215  and  _218
REMARK   85  A    between atoms: _218  and  _219
REMARK   86  A    between atoms: _219  and  _220
REMARK   87  A    between atoms: _223  and  _225
REMARK   88  A    between atoms: _225  and  _226
REMARK   89  A    between atoms: _225  and  _228
REMARK   90  A    between atoms: _228  and  _229
REMARK   91  A    between atoms: _229  and  _230
REMARK   92  A    between atoms: _235  and  _237
REMARK   93  A    between atoms: _237  and  _238
REMARK   94  A    between atoms: _237  and  _240
REMARK   95  A    between atoms: _240  and  _241
REMARK   96  A    between atoms: _241  and  _242
REMARK   97  A    between atoms: _242  and  _243
REMARK   98  A    between atoms: _243  and  _244
REMARK   99  A    between atoms: _248  and  _250
REMARK  100  A    between atoms: _250  and  _251
REMARK  101  A    between atoms: _254  and  _256
REMARK  102  A    between atoms: _256  and  _257
REMARK  103  A    between atoms: _259  and  _261
REMARK  104  A    between atoms: _261  and  _262
REMARK  105  A    between atoms: _261  and  _264
REMARK  106  A    between atoms: _264  and  _265
REMARK  107  A    between atoms: _270  and  _272
REMARK  108  A    between atoms: _272  and  _273
REMARK  109  A    between atoms: _272  and  _275
REMARK  110  A    between atoms: _275  and  _276
REMARK  111  A    between atoms: _276  and  _277
REMARK  112  A    between atoms: _280  and  _282
REMARK  113  A    between atoms: _282  and  _283
REMARK  114  A    between atoms: _282  and  _285
REMARK  115  A    between atoms: _285  and  _286
REMARK  116  A    between atoms: _288  and  _290
REMARK  117  A    between atoms: _290  and  _291
REMARK  118  A    between atoms: _290  and  _293
REMARK  119  A    between atoms: _293  and  _294
REMARK  120  A    between atoms: _300  and  _302
REMARK  121  A    between atoms: _302  and  _303
REMARK  122  A    between atoms: _302  and  _305
REMARK  123  A    between atoms: _308  and  _310
REMARK  124  A    between atoms: _310  and  _311
REMARK  125  A    between atoms: _310  and  _313
REMARK  126  A    between atoms: _313  and  _314
REMARK  127  A    between atoms: _317  and  _319
REMARK  128  A    between atoms: _319  and  _320
REMARK  129  A    between atoms: _319  and  _322
REMARK  130  A    between atoms: _322  and  _323
REMARK  131  A    between atoms: _326  and  _328
REMARK  132  A    between atoms: _328  and  _329
REMARK  133  A    between atoms: _328  and  _331
REMARK  134  A    between atoms: _331  and  _332
REMARK  135  A    between atoms: _335  and  _337
REMARK  136  A    between atoms: _337  and  _338
REMARK  137  A    between atoms: _337  and  _340
REMARK  138  A    between atoms: _340  and  _341
REMARK  139  A    between atoms: _344  and  _346
REMARK  140  A    between atoms: _346  and  _347
REMARK  141  A    between atoms: _346  and  _349
REMARK  142  A    between atoms: _349  and  _350
REMARK  143  A    between atoms: _355  and  _356
REMARK  144  A    between atoms: _358  and  _360
REMARK  145  A    between atoms: _360  and  _361
REMARK  146  A    between atoms: _360  and  _363
REMARK  147  A    between atoms: _363  and  _364
REMARK  148  A    between atoms: _369  and  _370
REMARK  149  A    between atoms: _372  and  _374
REMARK  150  A    between atoms: _374  and  _375
REMARK  151  A    between atoms: _374  and  _377
REMARK  152  A    between atoms: _377  and  _378
REMARK  153  A    between atoms: _381  and  _383
REMARK  154  A    between atoms: _383  and  _384
REMARK  155  A    between atoms: _383  and  _386
REMARK  156  A    between atoms: _386  and  _387
REMARK  157  A    between atoms: _387  and  _388
REMARK  158  A    between atoms: _393  and  _395
REMARK  159  A    between atoms: _395  and  _396
REMARK  160  A    between atoms: _395  and  _398
REMARK  161  A    between atoms: _401  and  _403
REMARK  162  A    between atoms: _403  and  _404
REMARK  163  A    between atoms: _403  and  _406
REMARK  164  A    between atoms: _406  and  _407
REMARK  165  A    between atoms: _410  and  _412
REMARK  166  A    between atoms: _412  and  _413
REMARK  167  A    between atoms: _412  and  _415
REMARK  168  A    between atoms: _415  and  _416
REMARK  169  A    between atoms: _418  and  _420
REMARK  170  A    between atoms: _420  and  _421
REMARK  171  A    between atoms: _423  and  _425
REMARK  172  A    between atoms: _425  and  _426
REMARK  173  A    between atoms: _425  and  _428
REMARK  174  A    between atoms: _428  and  _429
REMARK  175  A    between atoms: _434  and  _435
REMARK  176  A    between atoms: _437  and  _439
REMARK  177  A    between atoms: _439  and  _440
REMARK  178  A    between atoms: _439  and  _442
REMARK  179  A    between atoms: _442  and  _443
REMARK  180  A    between atoms: _443  and  _444
REMARK  181  A    between atoms: _449  and  _451
REMARK  182  A    between atoms: _451  and  _452
REMARK  183  A    between atoms: _451  and  _454
REMARK  184  A    between atoms: _454  and  _455
REMARK  185  A    between atoms: _455  and  _456
REMARK  186  A    between atoms: _461  and  _463
REMARK  187  A    between atoms: _463  and  _464
REMARK  188  A    between atoms: _463  and  _466
REMARK  189  A    between atoms: _466  and  _467
REMARK  190  A    between atoms: _472  and  _473
REMARK  191  A    between atoms: _475  and  _477
REMARK  192  A    between atoms: _477  and  _478
REMARK  193  A    between atoms: _481  and  _483
REMARK  194  A    between atoms: _483  and  _484
REMARK  195  A    between atoms: _483  and  _486
REMARK  196  A    between atoms: _486  and  _487
REMARK  197  A    between atoms: _492  and  _493
REMARK  198  A    between atoms: _495  and  _497
REMARK  199  A    between atoms: _497  and  _498
REMARK  200  A    between atoms: _497  and  _500
REMARK  201  A    between atoms: _500  and  _501
REMARK  202  A    between atoms: _506  and  _507
REMARK  203  A    between atoms: _509  and  _511
REMARK  204  A    between atoms: _511  and  _512
REMARK  205  A    between atoms: _511  and  _514
REMARK  206  A    between atoms: _514  and  _515
REMARK  207  A    between atoms: _518  and  _520
REMARK  208  A    between atoms: _520  and  _521
REMARK  209  A    between atoms: _520  and  _523
REMARK  210  A    between atoms: _523  and  _524
REMARK  211  A    between atoms: _534  and  _536
REMARK  212  A    between atoms: _536  and  _537
REMARK  213  A    between atoms: _540  and  _542
REMARK  214  A    between atoms: _542  and  _543
REMARK  215  A    between atoms: _546  and  _548
REMARK  216  A    between atoms: _548  and  _549
REMARK  217  A    between atoms: _548  and  _551
REMARK  218  A    between atoms: _551  and  _552
REMARK  219  A    between atoms: _555  and  _557
REMARK  220  A    between atoms: _557  and  _558
REMARK  221  A    between atoms: _557  and  _560
REMARK  222  A    between atoms: _560  and  _561
REMARK  223  A    between atoms: _564  and  _566
REMARK  224  A    between atoms: _566  and  _567
REMARK  225  A    between atoms: _566  and  _569
REMARK  226  A    between atoms: _569  and  _570
REMARK  227  A    between atoms: _573  and  _575
REMARK  228  A    between atoms: _575  and  _576
REMARK  229  A    between atoms: _575  and  _578
REMARK  230  A    between atoms: _578  and  _579
REMARK  231  A    between atoms: _579  and  _580
REMARK  232  A    between atoms: _580  and  _581
REMARK  233  A    between atoms: _581  and  _582
REMARK  234  A    between atoms: _586  and  _588
REMARK  235  A    between atoms: _588  and  _589
REMARK  236  A    between atoms: _588  and  _591
REMARK  237  A    between atoms: _591  and  _592
REMARK  238  A    between atoms: _597  and  _599
REMARK  239  A    between atoms: _599  and  _600
REMARK  240  A    between atoms: _599  and  _602
REMARK  241  A    between atoms: _602  and  _603
REMARK  242  A    between atoms: _603  and  _604
REMARK  243  A    between atoms: _604  and  _605
REMARK  244  A    between atoms: _605  and  _606
REMARK  245  A    between atoms: _610  and  _612
REMARK  246  A    between atoms: _612  and  _613
REMARK  247  A    between atoms: _612  and  _615
REMARK  248  A    between atoms: _615  and  _616
REMARK  249  A    between atoms: _626  and  _628
REMARK  250  A    between atoms: _628  and  _629
REMARK  251  A    between atoms: _628  and  _631
REMARK  252  A    between atoms: _631  and  _632
REMARK  253  A    between atoms: _632  and  _633
REMARK  254  A    between atoms: _636  and  _638
REMARK  255  A    between atoms: _638  and  _639
REMARK  256  A    between atoms: _642  and  _644
REMARK  257  A    between atoms: _644  and  _645
REMARK  258  A    between atoms: _647  and  _649
REMARK  259  A    between atoms: _649  and  _650
REMARK  260  A    between atoms: _649  and  _652
REMARK  261  A    between atoms: _652  and  _653
REMARK  262  A    between atoms: _653  and  _654
REMARK  263  A    between atoms: _657  and  _659
REMARK  264  A    between atoms: _659  and  _660
REMARK  265  A    between atoms: _663  and  _665
REMARK  266  A    between atoms: _665  and  _666
REMARK  267  A    between atoms: _665  and  _668
REMARK  268  A    between atoms: _668  and  _669
REMARK  269  A    between atoms: _669  and  _670
REMARK  270  A    between atoms: _673  and  _675
REMARK  271  A    between atoms: _675  and  _676
REMARK  272  A    between atoms: _675  and  _678
REMARK  273  A    between atoms: _678  and  _679
REMARK  274  A    between atoms: _679  and  _680
REMARK  275  A    between atoms: _680  and  _681
REMARK  276  A    between atoms: _690  and  _692
REMARK  277  A    between atoms: _692  and  _693
REMARK  278  A    between atoms: _692  and  _695
REMARK  279  A    between atoms: _695  and  _696
REMARK  280  A    between atoms: _699  and  _701
REMARK  281  A    between atoms: _701  and  _702
REMARK  282  A    between atoms: _701  and  _704
REMARK  283  A    between atoms: _704  and  _705
REMARK  284  A    between atoms: _705  and  _706
REMARK  285  A    between atoms: _706  and  _707
REMARK  286  A    between atoms: _716  and  _718
REMARK  287  A    between atoms: _718  and  _719
REMARK  288  A    between atoms: _722  and  _724
REMARK  289  A    between atoms: _724  and  _725
REMARK  290  A    between atoms: _724  and  _727
REMARK  291  A    between atoms: _727  and  _728
REMARK  292  A    between atoms: _733  and  _734
REMARK  293  A    between atoms: _736  and  _738
REMARK  294  A    between atoms: _738  and  _739
REMARK  295  A    between atoms: _738  and  _741
REMARK  296  A    between atoms: _741  and  _742
REMARK  297  A    between atoms: _745  and  _747
REMARK  298  A    between atoms: _747  and  _748
REMARK  299  A    between atoms: _747  and  _750
REMARK  300  A    between atoms: _750  and  _751
REMARK  301  A    between atoms: _754  and  _756
REMARK  302  A    between atoms: _756  and  _757
REMARK  303  A    between atoms: _756  and  _759
REMARK  304  A    between atoms: _761  and  _763
REMARK  305  A    between atoms: _763  and  _764
REMARK  306  A    between atoms: _763  and  _766
REMARK  307  A    between atoms: _769  and  _771
REMARK  308  A    between atoms: _771  and  _772
REMARK  309  A    between atoms: _771  and  _774
REMARK  310  A    between atoms: _774  and  _775
REMARK  311  A    between atoms: _775  and  _776
REMARK  312  A    between atoms: _779  and  _781
REMARK  313  A    between atoms: _781  and  _782
REMARK  314  A    between atoms: _781  and  _784
REMARK  315  A    between atoms: _784  and  _785
REMARK  316  A    between atoms: _795  and  _797
REMARK  317  A    between atoms: _797  and  _798
REMARK  318  A    between atoms: _797  and  _800
REMARK  319  A    between atoms: _800  and  _801
REMARK  320  A    between atoms: _804  and  _806
REMARK  321  A    between atoms: _806  and  _807
REMARK  322  A    between atoms: _806  and  _809
REMARK  323  A    between atoms: _809  and  _810
REMARK  324  A    between atoms: _810  and  _811
REMARK  325  A    between atoms: _811  and  _812
REMARK  326  A    between atoms: _821  and  _823
REMARK  327  A    between atoms: _823  and  _824
REMARK  328  A    between atoms: _823  and  _826
REMARK  329  A    between atoms: _826  and  _827
REMARK  330  A    between atoms: _832  and  _833
REMARK                            x       y       z     vdW  Elec       q    Type
REMARK                         _______ _______ _______ _____ _____    ______ ____
ROOT
ATOM      1  O   HOH     1      46.811  55.926   5.808  0.00  0.00    +0.000 OA
ENDROOT
TORSDOF 0
REMARK  Name = ../refined-set-2016/1fzm/1fzm_pocket.pdb
REMARK  330 active torsions:
REMARK  status: ('A' for Active; 'I' for Inactive)
REMARK    1  A    between atoms: _1  and  _3
REMARK    2  A    between atoms: _3  and  _4
REMARK    3  A    between atoms: _3  and  _6
REMARK    4  A    between atoms: _6  and  _7
REMARK    5  A    between atoms: _10  and  _12
REMARK    6  A    between atoms: _12  and  _13
REMARK    7  A    between atoms: _12  and  _15
REMARK    8  A    between atoms: _15  and  _16
REMARK    9  A    between atoms: _16  and  _17
REMARK   10  A    between atoms: _17  and  _18
REMARK   11  A    between atoms: _27  and  _29
REMARK   12  A    between atoms: _29  and  _30
REMARK   13  A    between atoms: _29  and  _32
REMARK   14  A    between atoms: _32  and  _33
REMARK   15  A    between atoms: _38  and  _39
REMARK   16  A    between atoms: _41  and  _43
REMARK   17  A    between atoms: _43  and  _44
REMARK   18  A    between atoms: _43  and  _46
REMARK   19  A    between atoms: _46  and  _47
REMARK   20  A    between atoms: _53  and  _55
REMARK   21  A    between atoms: _55  and  _56
REMARK   22  A    between atoms: _55  and  _58
REMARK   23  A    between atoms: _61  and  _63
REMARK   24  A    between atoms: _63  and  _64
REMARK   25  A    between atoms: _63  and  _66
REMARK   26  A    between atoms: _66  and  _67
REMARK   27  A    between atoms: _70  and  _72
REMARK   28  A    between atoms: _72  and  _73
REMARK   29  A    between atoms: _72  and  _75
REMARK   30  A    between atoms: _75  and  _76
REMARK   31  A    between atoms: _82  and  _84
REMARK   32  A    between atoms: _84  and  _85
REMARK   33  A    between atoms: _84  and  _87
REMARK   34  A    between atoms: _87  and  _88
REMARK   35  A    between atoms: _90  and  _92
REMARK   36  A    between atoms: _92  and  _93
REMARK   37  A    between atoms: _92  and  _95
REMARK   38  A    between atoms: _98  and  _100
REMARK   39  A    between atoms: _100  and  _101
REMARK   40  A    between atoms: _100  and  _103
REMARK   41  A    between atoms: _103  and  _104
REMARK   42  A    between atoms: _110  and  _112
REMARK   43  A    between atoms: _112  and  _113
REMARK   44  A    between atoms: _112  and  _115
REMARK   45  A    between atoms: _118  and  _120
REMARK   46  A    between atoms: _120  and  _121
REMARK   47  A    between atoms: _120  and  _123
REMARK   48  A    between atoms: _123  and  _124
REMARK   49  A    between atoms: _129  and  _130
REMARK   50  A    between atoms: _132  and  _134
REMARK   51  A    between atoms: _134  and  _135
REMARK   52  A    between atoms: _134  and  _137
REMARK   53  A    between atoms: _137  and  _138
REMARK   54  A    between atoms: _138  and  _139
REMARK   55  A    between atoms: _141  and  _143
REMARK   56  A    between atoms: _143  and  _144
REMARK   57  A    between atoms: _143  and  _146
REMARK   58  A    between atoms: _146  and  _147
REMARK   59  A    between atoms: _147  and  _148
REMARK   60  A    between atoms: _151  and  _153
REMARK   61  A    between atoms: _153  and  _154
REMARK   62  A    between atoms: _156  and  _158
REMARK   63  A    between atoms: _158  and  _159
REMARK   64  A    between atoms: _158  and  _161
REMARK   65  A    between atoms: _161  and  _162
REMARK   66  A    between atoms: _162  and  _163
REMARK   67  A    between atoms: _166  and  _168
REMARK   68  A    between atoms: _168  and  _169
REMARK   69  A    between atoms: _168  and  _171
REMARK   70  A    between atoms: _171  and  _172
REMARK   71  A    between atoms: _177  and  _178
REMARK   72  A    between atoms: _180  and  _182
REMARK   73  A    between atoms: _182  and  _183
REMARK   74  A    between atoms: _182  and  _185
REMARK   75  A    between atoms: _185  and  _186
REMARK   76  A    between atoms: _196  and  _198
REMARK   77  A    between atoms: _198  and  _199
REMARK   78  A    between atoms: _198  and  _201
REMARK   79  A    between atoms: _201  and  _202
REMARK   80  A    between atoms: _202  and  _203
REMARK   81  A    between atoms: _203  and  _204
REMARK   82  A    between atoms: _213  and  _215
REMARK   83  A    between atoms: _215  and  _216
REMARK   84  A    between atoms: _215  and  _218
REMARK   85  A    between atoms: _218  and  _219
REMARK   86  A    between atoms: _219  and  _220
REMARK   87  A    between atoms: _223  and  _225
REMARK   88  A    between atoms: _225  and  _226
REMARK   89  A    between atoms: _225  and  _228
REMARK   90  A    between atoms: _228  and  _229
REMARK   91  A    between atoms: _229  and  _230
REMARK   92  A    between atoms: _235  and  _237
REMARK   93  A    between atoms: _237  and  _238
REMARK   94  A    between atoms: _237  and  _240
REMARK   95  A    between atoms: _240  and  _241
REMARK   96  A    between atoms: _241  and  _242
REMARK   97  A    between atoms: _242  and  _243
REMARK   98  A    between atoms: _243  and  _244
REMARK   99  A    between atoms: _248  and  _250
REMARK  100  A    between atoms: _250  and  _251
REMARK  101  A    between atoms: _254  and  _256
REMARK  102  A    between atoms: _256  and  _257
REMARK  103  A    between atoms: _259  and  _261
REMARK  104  A    between atoms: _261  and  _262
REMARK  105  A    between atoms: _261  and  _264
REMARK  106  A    between atoms: _264  and  _265
REMARK  107  A    between atoms: _270  and  _272
REMARK  108  A    between atoms: _272  and  _273
REMARK  109  A    between atoms: _272  and  _275
REMARK  110  A    between atoms: _275  and  _276
REMARK  111  A    between atoms: _276  and  _277
REMARK  112  A    between atoms: _280  and  _282
REMARK  113  A    between atoms: _282  and  _283
REMARK  114  A    between atoms: _282  and  _285
REMARK  115  A    between atoms: _285  and  _286
REMARK  116  A    between atoms: _288  and  _290
REMARK  117  A    between atoms: _290  and  _291
REMARK  118  A    between atoms: _290  and  _293
REMARK  119  A    between atoms: _293  and  _294
REMARK  120  A    between atoms: _300  and  _302
REMARK  121  A    between atoms: _302  and  _303
REMARK  122  A    between atoms: _302  and  _305
REMARK  123  A    between atoms: _308  and  _310
REMARK  124  A    between atoms: _310  and  _311
REMARK  125  A    between atoms: _310  and  _313
REMARK  126  A    between atoms: _313  and  _314
REMARK  127  A    between atoms: _317  and  _319
REMARK  128  A    between atoms: _319  and  _320
REMARK  129  A    between atoms: _319  and  _322
REMARK  130  A    between atoms: _322  and  _323
REMARK  131  A    between atoms: _326  and  _328
REMARK  132  A    between atoms: _328  and  _329
REMARK  133  A    between atoms: _328  and  _331
REMARK  134  A    between atoms: _331  and  _332
REMARK  135  A    between atoms: _335  and  _337
REMARK  136  A    between atoms: _337  and  _338
REMARK  137  A    between atoms: _337  and  _340
REMARK  138  A    between atoms: _340  and  _341
REMARK  139  A    between atoms: _344  and  _346
REMARK  140  A    between atoms: _346  and  _347
REMARK  141  A    between atoms: _346  and  _349
REMARK  142  A    between atoms: _349  and  _350
REMARK  143  A    between atoms: _355  and  _356
REMARK  144  A    between atoms: _358  and  _360
REMARK  145  A    between atoms: _360  and  _361
REMARK  146  A    between atoms: _360  and  _363
REMARK  147  A    between atoms: _363  and  _364
REMARK  148  A    between atoms: _369  and  _370
REMARK  149  A    between atoms: _372  and  _374
REMARK  150  A    between atoms: _374  and  _375
REMARK  151  A    between atoms: _374  and  _377
REMARK  152  A    between atoms: _377  and  _378
REMARK  153  A    between atoms: _381  and  _383
REMARK  154  A    between atoms: _383  and  _384
REMARK  155  A    between atoms: _383  and  _386
REMARK  156  A    between atoms: _386  and  _387
REMARK  157  A    between atoms: _387  and  _388
REMARK  158  A    between atoms: _393  and  _395
REMARK  159  A    between atoms: _395  and  _396
REMARK  160  A    between atoms: _395  and  _398
REMARK  161  A    between atoms: _401  and  _403
REMARK  162  A    between atoms: _403  and  _404
REMARK  163  A    between atoms: _403  and  _406
REMARK  164  A    between atoms: _406  and  _407
REMARK  165  A    between atoms: _410  and  _412
REMARK  166  A    between atoms: _412  and  _413
REMARK  167  A    between atoms: _412  and  _415
REMARK  168  A    between atoms: _415  and  _416
REMARK  169  A    between atoms: _418  and  _420
REMARK  170  A    between atoms: _420  and  _421
REMARK  171  A    between atoms: _423  and  _425
REMARK  172  A    between atoms: _425  and  _426
REMARK  173  A    between atoms: _425  and  _428
REMARK  174  A    between atoms: _428  and  _429
REMARK  175  A    between atoms: _434  and  _435
REMARK  176  A    between atoms: _437  and  _439
REMARK  177  A    between atoms: _439  and  _440
REMARK  178  A    between atoms: _439  and  _442
REMARK  179  A    between atoms: _442  and  _443
REMARK  180  A    between atoms: _443  and  _444
REMARK  181  A    between atoms: _449  and  _451
REMARK  182  A    between atoms: _451  and  _452
REMARK  183  A    between atoms: _451  and  _454
REMARK  184  A    between atoms: _454  and  _455
REMARK  185  A    between atoms: _455  and  _456
REMARK  186  A    between atoms: _461  and  _463
REMARK  187  A    between atoms: _463  and  _464
REMARK  188  A    between atoms: _463  and  _466
REMARK  189  A    between atoms: _466  and  _467
REMARK  190  A    between atoms: _472  and  _473
REMARK  191  A    between atoms: _475  and  _477
REMARK  192  A    between atoms: _477  and  _478
REMARK  193  A    between atoms: _481  and  _483
REMARK  194  A    between atoms: _483  and  _484
REMARK  195  A    between atoms: _483  and  _486
REMARK  196  A    between atoms: _486  and  _487
REMARK  197  A    between atoms: _492  and  _493
REMARK  198  A    between atoms: _495  and  _497
REMARK  199  A    between atoms: _497  and  _498
REMARK  200  A    between atoms: _497  and  _500
REMARK  201  A    between atoms: _500  and  _501
REMARK  202  A    between atoms: _506  and  _507
REMARK  203  A    between atoms: _509  and  _511
REMARK  204  A    between atoms: _511  and  _512
REMARK  205  A    between atoms: _511  and  _514
REMARK  206  A    between atoms: _514  and  _515
REMARK  207  A    between atoms: _518  and  _520
REMARK  208  A    between atoms: _520  and  _521
REMARK  209  A    between atoms: _520  and  _523
REMARK  210  A    between atoms: _523  and  _524
REMARK  211  A    between atoms: _534  and  _536
REMARK  212  A    between atoms: _536  and  _537
REMARK  213  A    between atoms: _540  and  _542
REMARK  214  A    between atoms: _542  and  _543
REMARK  215  A    between atoms: _546  and  _548
REMARK  216  A    between atoms: _548  and  _549
REMARK  217  A    between atoms: _548  and  _551
REMARK  218  A    between atoms: _551  and  _552
REMARK  219  A    between atoms: _555  and  _557
REMARK  220  A    between atoms: _557  and  _558
REMARK  221  A    between atoms: _557  and  _560
REMARK  222  A    between atoms: _560  and  _561
REMARK  223  A    between atoms: _564  and  _566
REMARK  224  A    between atoms: _566  and  _567
REMARK  225  A    between atoms: _566  and  _569
REMARK  226  A    between atoms: _569  and  _570
REMARK  227  A    between atoms: _573  and  _575
REMARK  228  A    between atoms: _575  and  _576
REMARK  229  A    between atoms: _575  and  _578
REMARK  230  A    between atoms: _578  and  _579
REMARK  231  A    between atoms: _579  and  _580
REMARK  232  A    between atoms: _580  and  _581
REMARK  233  A    between atoms: _581  and  _582
REMARK  234  A    between atoms: _586  and  _588
REMARK  235  A    between atoms: _588  and  _589
REMARK  236  A    between atoms: _588  and  _591
REMARK  237  A    between atoms: _591  and  _592
REMARK  238  A    between atoms: _597  and  _599
REMARK  239  A    between atoms: _599  and  _600
REMARK  240  A    between atoms: _599  and  _602
REMARK  241  A    between atoms: _602  and  _603
REMARK  242  A    between atoms: _603  and  _604
REMARK  243  A    between atoms: _604  and  _605
REMARK  244  A    between atoms: _605  and  _606
REMARK  245  A    between atoms: _610  and  _612
REMARK  246  A    between atoms: _612  and  _613
REMARK  247  A    between atoms: _612  and  _615
REMARK  248  A    between atoms: _615  and  _616
REMARK  249  A    between atoms: _626  and  _628
REMARK  250  A    between atoms: _628  and  _629
REMARK  251  A    between atoms: _628  and  _631
REMARK  252  A    between atoms: _631  and  _632
REMARK  253  A    between atoms: _632  and  _633
REMARK  254  A    between atoms: _636  and  _638
REMARK  255  A    between atoms: _638  and  _639
REMARK  256  A    between atoms: _642  and  _644
REMARK  257  A    between atoms: _644  and  _645
REMARK  258  A    between atoms: _647  and  _649
REMARK  259  A    between atoms: _649  and  _650
REMARK  260  A    between atoms: _649  and  _652
REMARK  261  A    between atoms: _652  and  _653
REMARK  262  A    between atoms: _653  and  _654
REMARK  263  A    between atoms: _657  and  _659
REMARK  264  A    between atoms: _659  and  _660
REMARK  265  A    between atoms: _663  and  _665
REMARK  266  A    between atoms: _665  and  _666
REMARK  267  A    between atoms: _665  and  _668
REMARK  268  A    between atoms: _668  and  _669
REMARK  269  A    between atoms: _669  and  _670
REMARK  270  A    between atoms: _673  and  _675
REMARK  271  A    between atoms: _675  and  _676
REMARK  272  A    between atoms: _675  and  _678
REMARK  273  A    between atoms: _678  and  _679
REMARK  274  A    between atoms: _679  and  _680
REMARK  275  A    between atoms: _680  and  _681
REMARK  276  A    between atoms: _690  and  _692
REMARK  277  A    between atoms: _692  and  _693
REMARK  278  A    between atoms: _692  and  _695
REMARK  279  A    between atoms: _695  and  _696
REMARK  280  A    between atoms: _699  and  _701
REMARK  281  A    between atoms: _701  and  _702
REMARK  282  A    between atoms: _701  and  _704
REMARK  283  A    between atoms: _704  and  _705
REMARK  284  A    between atoms: _705  and  _706
REMARK  285  A    between atoms: _706  and  _707
REMARK  286  A    between atoms: _716  and  _718
REMARK  287  A    between atoms: _718  and  _719
REMARK  288  A    between atoms: _722  and  _724
REMARK  289  A    between atoms: _724  and  _725
REMARK  290  A    between atoms: _724  and  _727
REMARK  291  A    between atoms: _727  and  _728
REMARK  292  A    between atoms: _733  and  _734
REMARK  293  A    between atoms: _736  and  _738
REMARK  294  A    between atoms: _738  and  _739
REMARK  295  A    between atoms: _738  and  _741
REMARK  296  A    between atoms: _741  and  _742
REMARK  297  A    between atoms: _745  and  _747
REMARK  298  A    between atoms: _747  and  _748
REMARK  299  A    between atoms: _747  and  _750
REMARK  300  A    between atoms: _750  and  _751
REMARK  301  A    between atoms: _754  and  _756
REMARK  302  A    between atoms: _756  and  _757
REMARK  303  A    between atoms: _756  and  _759
REMARK  304  A    between atoms: _761  and  _763
REMARK  305  A    between atoms: _763  and  _764
REMARK  306  A    between atoms: _763  and  _766
REMARK  307  A    between atoms: _769  and  _771
REMARK  308  A    between atoms: _771  and  _772
REMARK  309  A    between atoms: _771  and  _774
REMARK  310  A    between atoms: _774  and  _775
REMARK  311  A    between atoms: _775  and  _776
REMARK  312  A    between atoms: _779  and  _781
REMARK  313  A    between atoms: _781  and  _782
REMARK  314  A    between atoms: _781  and  _784
REMARK  315  A    between atoms: _784  and  _785
REMARK  316  A    between atoms: _795  and  _797
REMARK  317  A    between atoms: _797  and  _798
REMARK  318  A    between atoms: _797  and  _800
REMARK  319  A    between atoms: _800  and  _801
REMARK  320  A    between atoms: _804  and  _806
REMARK  321  A    between atoms: _806  and  _807
REMARK  322  A    between atoms: _806  and  _809
REMARK  323  A    between atoms: _809  and  _810
REMARK  324  A    between atoms: _810  and  _811
REMARK  325  A    between atoms: _811  and  _812
REMARK  326  A    between atoms: _821  and  _823
REMARK  327  A    between atoms: _823  and  _824
REMARK  328  A    between atoms: _823  and  _826
REMARK  329  A    between atoms: _826  and  _827
REMARK  330  A    between atoms: _832  and  _833
REMARK                            x       y       z     vdW  Elec       q    Type
REMARK                         _______ _______ _______ _____ _____    ______ ____
ROOT
ATOM      1  O   HOH     1      46.376  58.331 -10.988  0.00  0.00    +0.000 OA
ENDROOT
TORSDOF 0
REMARK  Name = ../refined-set-2016/1fzm/1fzm_pocket.pdb
REMARK  330 active torsions:
REMARK  status: ('A' for Active; 'I' for Inactive)
REMARK    1  A    between atoms: _1  and  _3
REMARK    2  A    between atoms: _3  and  _4
REMARK    3  A    between atoms: _3  and  _6
REMARK    4  A    between atoms: _6  and  _7
REMARK    5  A    between atoms: _10  and  _12
REMARK    6  A    between atoms: _12  and  _13
REMARK    7  A    between atoms: _12  and  _15
REMARK    8  A    between atoms: _15  and  _16
REMARK    9  A    between atoms: _16  and  _17
REMARK   10  A    between atoms: _17  and  _18
REMARK   11  A    between atoms: _27  and  _29
REMARK   12  A    between atoms: _29  and  _30
REMARK   13  A    between atoms: _29  and  _32
REMARK   14  A    between atoms: _32  and  _33
REMARK   15  A    between atoms: _38  and  _39
REMARK   16  A    between atoms: _41  and  _43
REMARK   17  A    between atoms: _43  and  _44
REMARK   18  A    between atoms: _43  and  _46
REMARK   19  A    between atoms: _46  and  _47
REMARK   20  A    between atoms: _53  and  _55
REMARK   21  A    between atoms: _55  and  _56
REMARK   22  A    between atoms: _55  and  _58
REMARK   23  A    between atoms: _61  and  _63
REMARK   24  A    between atoms: _63  and  _64
REMARK   25  A    between atoms: _63  and  _66
REMARK   26  A    between atoms: _66  and  _67
REMARK   27  A    between atoms: _70  and  _72
REMARK   28  A    between atoms: _72  and  _73
REMARK   29  A    between atoms: _72  and  _75
REMARK   30  A    between atoms: _75  and  _76
REMARK   31  A    between atoms: _82  and  _84
REMARK   32  A    between atoms: _84  and  _85
REMARK   33  A    between atoms: _84  and  _87
REMARK   34  A    between atoms: _87  and  _88
REMARK   35  A    between atoms: _90  and  _92
REMARK   36  A    between atoms: _92  and  _93
REMARK   37  A    between atoms: _92  and  _95
REMARK   38  A    between atoms: _98  and  _100
REMARK   39  A    between atoms: _100  and  _101
REMARK   40  A    between atoms: _100  and  _103
REMARK   41  A    between atoms: _103  and  _104
REMARK   42  A    between atoms: _110  and  _112
REMARK   43  A    between atoms: _112  and  _113
REMARK   44  A    between atoms: _112  and  _115
REMARK   45  A    between atoms: _118  and  _120
REMARK   46  A    between atoms: _120  and  _121
REMARK   47  A    between atoms: _120  and  _123
REMARK   48  A    between atoms: _123  and  _124
REMARK   49  A    between atoms: _129  and  _130
REMARK   50  A    between atoms: _132  and  _134
REMARK   51  A    between atoms: _134  and  _135
REMARK   52  A    between atoms: _134  and  _137
REMARK   53  A    between atoms: _137  and  _138
REMARK   54  A    between atoms: _138  and  _139
REMARK   55  A    between atoms: _141  and  _143
REMARK   56  A    between atoms: _143  and  _144
REMARK   57  A    between atoms: _143  and  _146
REMARK   58  A    between atoms: _146  and  _147
REMARK   59  A    between atoms: _147  and  _148
REMARK   60  A    between atoms: _151  and  _153
REMARK   61  A    between atoms: _153  and  _154
REMARK   62  A    between atoms: _156  and  _158
REMARK   63  A    between atoms: _158  and  _159
REMARK   64  A    between atoms: _158  and  _161
REMARK   65  A    between atoms: _161  and  _162
REMARK   66  A    between atoms: _162  and  _163
REMARK   67  A    between atoms: _166  and  _168
REMARK   68  A    between atoms: _168  and  _169
REMARK   69  A    between atoms: _168  and  _171
REMARK   70  A    between atoms: _171  and  _172
REMARK   71  A    between atoms: _177  and  _178
REMARK   72  A    between atoms: _180  and  _182
REMARK   73  A    between atoms: _182  and  _183
REMARK   74  A    between atoms: _182  and  _185
REMARK   75  A    between atoms: _185  and  _186
REMARK   76  A    between atoms: _196  and  _198
REMARK   77  A    between atoms: _198  and  _199
REMARK   78  A    between atoms: _198  and  _201
REMARK   79  A    between atoms: _201  and  _202
REMARK   80  A    between atoms: _202  and  _203
REMARK   81  A    between atoms: _203  and  _204
REMARK   82  A    between atoms: _213  and  _215
REMARK   83  A    between atoms: _215  and  _216
REMARK   84  A    between atoms: _215  and  _218
REMARK   85  A    between atoms: _218  and  _219
REMARK   86  A    between atoms: _219  and  _220
REMARK   87  A    between atoms: _223  and  _225
REMARK   88  A    between atoms: _225  and  _226
REMARK   89  A    between atoms: _225  and  _228
REMARK   90  A    between atoms: _228  and  _229
REMARK   91  A    between atoms: _229  and  _230
REMARK   92  A    between atoms: _235  and  _237
REMARK   93  A    between atoms: _237  and  _238
REMARK   94  A    between atoms: _237  and  _240
REMARK   95  A    between atoms: _240  and  _241
REMARK   96  A    between atoms: _241  and  _242
REMARK   97  A    between atoms: _242  and  _243
REMARK   98  A    between atoms: _243  and  _244
REMARK   99  A    between atoms: _248  and  _250
REMARK  100  A    between atoms: _250  and  _251
REMARK  101  A    between atoms: _254  and  _256
REMARK  102  A    between atoms: _256  and  _257
REMARK  103  A    between atoms: _259  and  _261
REMARK  104  A    between atoms: _261  and  _262
REMARK  105  A    between atoms: _261  and  _264
REMARK  106  A    between atoms: _264  and  _265
REMARK  107  A    between atoms: _270  and  _272
REMARK  108  A    between atoms: _272  and  _273
REMARK  109  A    between atoms: _272  and  _275
REMARK  110  A    between atoms: _275  and  _276
REMARK  111  A    between atoms: _276  and  _277
REMARK  112  A    between atoms: _280  and  _282
REMARK  113  A    between atoms: _282  and  _283
REMARK  114  A    between atoms: _282  and  _285
REMARK  115  A    between atoms: _285  and  _286
REMARK  116  A    between atoms: _288  and  _290
REMARK  117  A    between atoms: _290  and  _291
REMARK  118  A    between atoms: _290  and  _293
REMARK  119  A    between atoms: _293  and  _294
REMARK  120  A    between atoms: _300  and  _302
REMARK  121  A    between atoms: _302  and  _303
REMARK  122  A    between atoms: _302  and  _305
REMARK  123  A    between atoms: _308  and  _310
REMARK  124  A    between atoms: _310  and  _311
REMARK  125  A    between atoms: _310  and  _313
REMARK  126  A    between atoms: _313  and  _314
REMARK  127  A    between atoms: _317  and  _319
REMARK  128  A    between atoms: _319  and  _320
REMARK  129  A    between atoms: _319  and  _322
REMARK  130  A    between atoms: _322  and  _323
REMARK  131  A    between atoms: _326  and  _328
REMARK  132  A    between atoms: _328  and  _329
REMARK  133  A    between atoms: _328  and  _331
REMARK  134  A    between atoms: _331  and  _332
REMARK  135  A    between atoms: _335  and  _337
REMARK  136  A    between atoms: _337  and  _338
REMARK  137  A    between atoms: _337  and  _340
REMARK  138  A    between atoms: _340  and  _341
REMARK  139  A    between atoms: _344  and  _346
REMARK  140  A    between atoms: _346  and  _347
REMARK  141  A    between atoms: _346  and  _349
REMARK  142  A    between atoms: _349  and  _350
REMARK  143  A    between atoms: _355  and  _356
REMARK  144  A    between atoms: _358  and  _360
REMARK  145  A    between atoms: _360  and  _361
REMARK  146  A    between atoms: _360  and  _363
REMARK  147  A    between atoms: _363  and  _364
REMARK  148  A    between atoms: _369  and  _370
REMARK  149  A    between atoms: _372  and  _374
REMARK  150  A    between atoms: _374  and  _375
REMARK  151  A    between atoms: _374  and  _377
REMARK  152  A    between atoms: _377  and  _378
REMARK  153  A    between atoms: _381  and  _383
REMARK  154  A    between atoms: _383  and  _384
REMARK  155  A    between atoms: _383  and  _386
REMARK  156  A    between atoms: _386  and  _387
REMARK  157  A    between atoms: _387  and  _388
REMARK  158  A    between atoms: _393  and  _395
REMARK  159  A    between atoms: _395  and  _396
REMARK  160  A    between atoms: _395  and  _398
REMARK  161  A    between atoms: _401  and  _403
REMARK  162  A    between atoms: _403  and  _404
REMARK  163  A    between atoms: _403  and  _406
REMARK  164  A    between atoms: _406  and  _407
REMARK  165  A    between atoms: _410  and  _412
REMARK  166  A    between atoms: _412  and  _413
REMARK  167  A    between atoms: _412  and  _415
REMARK  168  A    between atoms: _415  and  _416
REMARK  169  A    between atoms: _418  and  _420
REMARK  170  A    between atoms: _420  and  _421
REMARK  171  A    between atoms: _423  and  _425
REMARK  172  A    between atoms: _425  and  _426
REMARK  173  A    between atoms: _425  and  _428
REMARK  174  A    between atoms: _428  and  _429
REMARK  175  A    between atoms: _434  and  _435
REMARK  176  A    between atoms: _437  and  _439
REMARK  177  A    between atoms: _439  and  _440
REMARK  178  A    between atoms: _439  and  _442
REMARK  179  A    between atoms: _442  and  _443
REMARK  180  A    between atoms: _443  and  _444
REMARK  181  A    between atoms: _449  and  _451
REMARK  182  A    between atoms: _451  and  _452
REMARK  183  A    between atoms: _451  and  _454
REMARK  184  A    between atoms: _454  and  _455
REMARK  185  A    between atoms: _455  and  _456
REMARK  186  A    between atoms: _461  and  _463
REMARK  187  A    between atoms: _463  and  _464
REMARK  188  A    between atoms: _463  and  _466
REMARK  189  A    between atoms: _466  and  _467
REMARK  190  A    between atoms: _472  and  _473
REMARK  191  A    between atoms: _475  and  _477
REMARK  192  A    between atoms: _477  and  _478
REMARK  193  A    between atoms: _481  and  _483
REMARK  194  A    between atoms: _483  and  _484
REMARK  195  A    between atoms: _483  and  _486
REMARK  196  A    between atoms: _486  and  _487
REMARK  197  A    between atoms: _492  and  _493
REMARK  198  A    between atoms: _495  and  _497
REMARK  199  A    between atoms: _497  and  _498
REMARK  200  A    between atoms: _497  and  _500
REMARK  201  A    between atoms: _500  and  _501
REMARK  202  A    between atoms: _506  and  _507
REMARK  203  A    between atoms: _509  and  _511
REMARK  204  A    between atoms: _511  and  _512
REMARK  205  A    between atoms: _511  and  _514
REMARK  206  A    between atoms: _514  and  _515
REMARK  207  A    between atoms: _518  and  _520
REMARK  208  A    between atoms: _520  and  _521
REMARK  209  A    between atoms: _520  and  _523
REMARK  210  A    between atoms: _523  and  _524
REMARK  211  A    between atoms: _534  and  _536
REMARK  212  A    between atoms: _536  and  _537
REMARK  213  A    between atoms: _540  and  _542
REMARK  214  A    between atoms: _542  and  _543
REMARK  215  A    between atoms: _546  and  _548
REMARK  216  A    between atoms: _548  and  _549
REMARK  217  A    between atoms: _548  and  _551
REMARK  218  A    between atoms: _551  and  _552
REMARK  219  A    between atoms: _555  and  _557
REMARK  220  A    between atoms: _557  and  _558
REMARK  221  A    between atoms: _557  and  _560
REMARK  222  A    between atoms: _560  and  _561
REMARK  223  A    between atoms: _564  and  _566
REMARK  224  A    between atoms: _566  and  _567
REMARK  225  A    between atoms: _566  and  _569
REMARK  226  A    between atoms: _569  and  _570
REMARK  227  A    between atoms: _573  and  _575
REMARK  228  A    between atoms: _575  and  _576
REMARK  229  A    between atoms: _575  and  _578
REMARK  230  A    between atoms: _578  and  _579
REMARK  231  A    between atoms: _579  and  _580
REMARK  232  A    between atoms: _580  and  _581
REMARK  233  A    between atoms: _581  and  _582
REMARK  234  A    between atoms: _586  and  _588
REMARK  235  A    between atoms: _588  and  _589
REMARK  236  A    between atoms: _588  and  _591
REMARK  237  A    between atoms: _591  and  _592
REMARK  238  A    between atoms: _597  and  _599
REMARK  239  A    between atoms: _599  and  _600
REMARK  240  A    between atoms: _599  and  _602
REMARK  241  A    between atoms: _602  and  _603
REMARK  242  A    between atoms: _603  and  _604
REMARK  243  A    between atoms: _604  and  _605
REMARK  244  A    between atoms: _605  and  _606
REMARK  245  A    between atoms: _610  and  _612
REMARK  246  A    between atoms: _612  and  _613
REMARK  247  A    between atoms: _612  and  _615
REMARK  248  A    between atoms: _615  and  _616
REMARK  249  A    between atoms: _626  and  _628
REMARK  250  A    between atoms: _628  and  _629
REMARK  251  A    between atoms: _628  and  _631
REMARK  252  A    between atoms: _631  and  _632
REMARK  253  A    between atoms: _632  and  _633
REMARK  254  A    between atoms: _636  and  _638
REMARK  255  A    between atoms: _638  and  _639
REMARK  256  A    between atoms: _642  and  _644
REMARK  257  A    between atoms: _644  and  _645
REMARK  258  A    between atoms: _647  and  _649
REMARK  259  A    between atoms: _649  and  _650
REMARK  260  A    between atoms: _649  and  _652
REMARK  261  A    between atoms: _652  and  _653
REMARK  262  A    between atoms: _653  and  _654
REMARK  263  A    between atoms: _657  and  _659
REMARK  264  A    between atoms: _659  and  _660
REMARK  265  A    between atoms: _663  and  _665
REMARK  266  A    between atoms: _665  and  _666
REMARK  267  A    between atoms: _665  and  _668
REMARK  268  A    between atoms: _668  and  _669
REMARK  269  A    between atoms: _669  and  _670
REMARK  270  A    between atoms: _673  and  _675
REMARK  271  A    between atoms: _675  and  _676
REMARK  272  A    between atoms: _675  and  _678
REMARK  273  A    between atoms: _678  and  _679
REMARK  274  A    between atoms: _679  and  _680
REMARK  275  A    between atoms: _680  and  _681
REMARK  276  A    between atoms: _690  and  _692
REMARK  277  A    between atoms: _692  and  _693
REMARK  278  A    between atoms: _692  and  _695
REMARK  279  A    between atoms: _695  and  _696
REMARK  280  A    between atoms: _699  and  _701
REMARK  281  A    between atoms: _701  and  _702
REMARK  282  A    between atoms: _701  and  _704
REMARK  283  A    between atoms: _704  and  _705
REMARK  284  A    between atoms: _705  and  _706
REMARK  285  A    between atoms: _706  and  _707
REMARK  286  A    between atoms: _716  and  _718
REMARK  287  A    between atoms: _718  and  _719
REMARK  288  A    between atoms: _722  and  _724
REMARK  289  A    between atoms: _724  and  _725
REMARK  290  A    between atoms: _724  and  _727
REMARK  291  A    between atoms: _727  and  _728
REMARK  292  A    between atoms: _733  and  _734
REMARK  293  A    between atoms: _736  and  _738
REMARK  294  A    between atoms: _738  and  _739
REMARK  295  A    between atoms: _738  and  _741
REMARK  296  A    between atoms: _741  and  _742
REMARK  297  A    between atoms: _745  and  _747
REMARK  298  A    between atoms: _747  and  _748
REMARK  299  A    between atoms: _747  and  _750
REMARK  300  A    between atoms: _750  and  _751
REMARK  301  A    between atoms: _754  and  _756
REMARK  302  A    between atoms: _756  and  _757
REMARK  303  A    between atoms: _756  and  _759
REMARK  304  A    between atoms: _761  and  _763
REMARK  305  A    between atoms: _763  and  _764
REMARK  306  A    between atoms: _763  and  _766
REMARK  307  A    between atoms: _769  and  _771
REMARK  308  A    between atoms: _771  and  _772
REMARK  309  A    between atoms: _771  and  _774
REMARK  310  A    between atoms: _774  and  _775
REMARK  311  A    between atoms: _775  and  _776
REMARK  312  A    between atoms: _779  and  _781
REMARK  313  A    between atoms: _781  and  _782
REMARK  314  A    between atoms: _781  and  _784
REMARK  315  A    between atoms: _784  and  _785
REMARK  316  A    between atoms: _795  and  _797
REMARK  317  A    between atoms: _797  and  _798
REMARK  318  A    between atoms: _797  and  _800
REMARK  319  A    between atoms: _800  and  _801
REMARK  320  A    between atoms: _804  and  _806
REMARK  321  A    between atoms: _806  and  _807
REMARK  322  A    between atoms: _806  and  _809
REMARK  323  A    between atoms: _809  and  _810
REMARK  324  A    between atoms: _810  and  _811
REMARK  325  A    between atoms: _811  and  _812
REMARK  326  A    between atoms: _821  and  _823
REMARK  327  A    between atoms: _823  and  _824
REMARK  328  A    between atoms: _823  and  _826
REMARK  329  A    between atoms: _826  and  _827
REMARK  330  A    between atoms: _832  and  _833
REMARK                            x       y       z     vdW  Elec       q    Type
REMARK                         _______ _______ _______ _____ _____    ______ ____
ROOT
ATOM      1  O   HOH     1      38.317  57.920  -8.519  0.00  0.00    +0.000 OA
ENDROOT
TORSDOF 0
REMARK  Name = ../refined-set-2016/1fzm/1fzm_pocket.pdb
REMARK  330 active torsions:
REMARK  status: ('A' for Active; 'I' for Inactive)
REMARK    1  A    between atoms: _1  and  _3
REMARK    2  A    between atoms: _3  and  _4
REMARK    3  A    between atoms: _3  and  _6
REMARK    4  A    between atoms: _6  and  _7
REMARK    5  A    between atoms: _10  and  _12
REMARK    6  A    between atoms: _12  and  _13
REMARK    7  A    between atoms: _12  and  _15
REMARK    8  A    between atoms: _15  and  _16
REMARK    9  A    between atoms: _16  and  _17
REMARK   10  A    between atoms: _17  and  _18
REMARK   11  A    between atoms: _27  and  _29
REMARK   12  A    between atoms: _29  and  _30
REMARK   13  A    between atoms: _29  and  _32
REMARK   14  A    between atoms: _32  and  _33
REMARK   15  A    between atoms: _38  and  _39
REMARK   16  A    between atoms: _41  and  _43
REMARK   17  A    between atoms: _43  and  _44
REMARK   18  A    between atoms: _43  and  _46
REMARK   19  A    between atoms: _46  and  _47
REMARK   20  A    between atoms: _53  and  _55
REMARK   21  A    between atoms: _55  and  _56
REMARK   22  A    between atoms: _55  and  _58
REMARK   23  A    between atoms: _61  and  _63
REMARK   24  A    between atoms: _63  and  _64
REMARK   25  A    between atoms: _63  and  _66
REMARK   26  A    between atoms: _66  and  _67
REMARK   27  A    between atoms: _70  and  _72
REMARK   28  A    between atoms: _72  and  _73
REMARK   29  A    between atoms: _72  and  _75
REMARK   30  A    between atoms: _75  and  _76
REMARK   31  A    between atoms: _82  and  _84
REMARK   32  A    between atoms: _84  and  _85
REMARK   33  A    between atoms: _84  and  _87
REMARK   34  A    between atoms: _87  and  _88
REMARK   35  A    between atoms: _90  and  _92
REMARK   36  A    between atoms: _92  and  _93
REMARK   37  A    between atoms: _92  and  _95
REMARK   38  A    between atoms: _98  and  _100
REMARK   39  A    between atoms: _100  and  _101
REMARK   40  A    between atoms: _100  and  _103
REMARK   41  A    between atoms: _103  and  _104
REMARK   42  A    between atoms: _110  and  _112
REMARK   43  A    between atoms: _112  and  _113
REMARK   44  A    between atoms: _112  and  _115
REMARK   45  A    between atoms: _118  and  _120
REMARK   46  A    between atoms: _120  and  _121
REMARK   47  A    between atoms: _120  and  _123
REMARK   48  A    between atoms: _123  and  _124
REMARK   49  A    between atoms: _129  and  _130
REMARK   50  A    between atoms: _132  and  _134
REMARK   51  A    between atoms: _134  and  _135
REMARK   52  A    between atoms: _134  and  _137
REMARK   53  A    between atoms: _137  and  _138
REMARK   54  A    between atoms: _138  and  _139
REMARK   55  A    between atoms: _141  and  _143
REMARK   56  A    between atoms: _143  and  _144
REMARK   57  A    between atoms: _143  and  _146
REMARK   58  A    between atoms: _146  and  _147
REMARK   59  A    between atoms: _147  and  _148
REMARK   60  A    between atoms: _151  and  _153
REMARK   61  A    between atoms: _153  and  _154
REMARK   62  A    between atoms: _156  and  _158
REMARK   63  A    between atoms: _158  and  _159
REMARK   64  A    between atoms: _158  and  _161
REMARK   65  A    between atoms: _161  and  _162
REMARK   66  A    between atoms: _162  and  _163
REMARK   67  A    between atoms: _166  and  _168
REMARK   68  A    between atoms: _168  and  _169
REMARK   69  A    between atoms: _168  and  _171
REMARK   70  A    between atoms: _171  and  _172
REMARK   71  A    between atoms: _177  and  _178
REMARK   72  A    between atoms: _180  and  _182
REMARK   73  A    between atoms: _182  and  _183
REMARK   74  A    between atoms: _182  and  _185
REMARK   75  A    between atoms: _185  and  _186
REMARK   76  A    between atoms: _196  and  _198
REMARK   77  A    between atoms: _198  and  _199
REMARK   78  A    between atoms: _198  and  _201
REMARK   79  A    between atoms: _201  and  _202
REMARK   80  A    between atoms: _202  and  _203
REMARK   81  A    between atoms: _203  and  _204
REMARK   82  A    between atoms: _213  and  _215
REMARK   83  A    between atoms: _215  and  _216
REMARK   84  A    between atoms: _215  and  _218
REMARK   85  A    between atoms: _218  and  _219
REMARK   86  A    between atoms: _219  and  _220
REMARK   87  A    between atoms: _223  and  _225
REMARK   88  A    between atoms: _225  and  _226
REMARK   89  A    between atoms: _225  and  _228
REMARK   90  A    between atoms: _228  and  _229
REMARK   91  A    between atoms: _229  and  _230
REMARK   92  A    between atoms: _235  and  _237
REMARK   93  A    between atoms: _237  and  _238
REMARK   94  A    between atoms: _237  and  _240
REMARK   95  A    between atoms: _240  and  _241
REMARK   96  A    between atoms: _241  and  _242
REMARK   97  A    between atoms: _242  and  _243
REMARK   98  A    between atoms: _243  and  _244
REMARK   99  A    between atoms: _248  and  _250
REMARK  100  A    between atoms: _250  and  _251
REMARK  101  A    between atoms: _254  and  _256
REMARK  102  A    between atoms: _256  and  _257
REMARK  103  A    between atoms: _259  and  _261
REMARK  104  A    between atoms: _261  and  _262
REMARK  105  A    between atoms: _261  and  _264
REMARK  106  A    between atoms: _264  and  _265
REMARK  107  A    between atoms: _270  and  _272
REMARK  108  A    between atoms: _272  and  _273
REMARK  109  A    between atoms: _272  and  _275
REMARK  110  A    between atoms: _275  and  _276
REMARK  111  A    between atoms: _276  and  _277
REMARK  112  A    between atoms: _280  and  _282
REMARK  113  A    between atoms: _282  and  _283
REMARK  114  A    between atoms: _282  and  _285
REMARK  115  A    between atoms: _285  and  _286
REMARK  116  A    between atoms: _288  and  _290
REMARK  117  A    between atoms: _290  and  _291
REMARK  118  A    between atoms: _290  and  _293
REMARK  119  A    between atoms: _293  and  _294
REMARK  120  A    between atoms: _300  and  _302
REMARK  121  A    between atoms: _302  and  _303
REMARK  122  A    between atoms: _302  and  _305
REMARK  123  A    between atoms: _308  and  _310
REMARK  124  A    between atoms: _310  and  _311
REMARK  125  A    between atoms: _310  and  _313
REMARK  126  A    between atoms: _313  and  _314
REMARK  127  A    between atoms: _317  and  _319
REMARK  128  A    between atoms: _319  and  _320
REMARK  129  A    between atoms: _319  and  _322
REMARK  130  A    between atoms: _322  and  _323
REMARK  131  A    between atoms: _326  and  _328
REMARK  132  A    between atoms: _328  and  _329
REMARK  133  A    between atoms: _328  and  _331
REMARK  134  A    between atoms: _331  and  _332
REMARK  135  A    between atoms: _335  and  _337
REMARK  136  A    between atoms: _337  and  _338
REMARK  137  A    between atoms: _337  and  _340
REMARK  138  A    between atoms: _340  and  _341
REMARK  139  A    between atoms: _344  and  _346
REMARK  140  A    between atoms: _346  and  _347
REMARK  141  A    between atoms: _346  and  _349
REMARK  142  A    between atoms: _349  and  _350
REMARK  143  A    between atoms: _355  and  _356
REMARK  144  A    between atoms: _358  and  _360
REMARK  145  A    between atoms: _360  and  _361
REMARK  146  A    between atoms: _360  and  _363
REMARK  147  A    between atoms: _363  and  _364
REMARK  148  A    between atoms: _369  and  _370
REMARK  149  A    between atoms: _372  and  _374
REMARK  150  A    between atoms: _374  and  _375
REMARK  151  A    between atoms: _374  and  _377
REMARK  152  A    between atoms: _377  and  _378
REMARK  153  A    between atoms: _381  and  _383
REMARK  154  A    between atoms: _383  and  _384
REMARK  155  A    between atoms: _383  and  _386
REMARK  156  A    between atoms: _386  and  _387
REMARK  157  A    between atoms: _387  and  _388
REMARK  158  A    between atoms: _393  and  _395
REMARK  159  A    between atoms: _395  and  _396
REMARK  160  A    between atoms: _395  and  _398
REMARK  161  A    between atoms: _401  and  _403
REMARK  162  A    between atoms: _403  and  _404
REMARK  163  A    between atoms: _403  and  _406
REMARK  164  A    between atoms: _406  and  _407
REMARK  165  A    between atoms: _410  and  _412
REMARK  166  A    between atoms: _412  and  _413
REMARK  167  A    between atoms: _412  and  _415
REMARK  168  A    between atoms: _415  and  _416
REMARK  169  A    between atoms: _418  and  _420
REMARK  170  A    between atoms: _420  and  _421
REMARK  171  A    between atoms: _423  and  _425
REMARK  172  A    between atoms: _425  and  _426
REMARK  173  A    between atoms: _425  and  _428
REMARK  174  A    between atoms: _428  and  _429
REMARK  175  A    between atoms: _434  and  _435
REMARK  176  A    between atoms: _437  and  _439
REMARK  177  A    between atoms: _439  and  _440
REMARK  178  A    between atoms: _439  and  _442
REMARK  179  A    between atoms: _442  and  _443
REMARK  180  A    between atoms: _443  and  _444
REMARK  181  A    between atoms: _449  and  _451
REMARK  182  A    between atoms: _451  and  _452
REMARK  183  A    between atoms: _451  and  _454
REMARK  184  A    between atoms: _454  and  _455
REMARK  185  A    between atoms: _455  and  _456
REMARK  186  A    between atoms: _461  and  _463
REMARK  187  A    between atoms: _463  and  _464
REMARK  188  A    between atoms: _463  and  _466
REMARK  189  A    between atoms: _466  and  _467
REMARK  190  A    between atoms: _472  and  _473
REMARK  191  A    between atoms: _475  and  _477
REMARK  192  A    between atoms: _477  and  _478
REMARK  193  A    between atoms: _481  and  _483
REMARK  194  A    between atoms: _483  and  _484
REMARK  195  A    between atoms: _483  and  _486
REMARK  196  A    between atoms: _486  and  _487
REMARK  197  A    between atoms: _492  and  _493
REMARK  198  A    between atoms: _495  and  _497
REMARK  199  A    between atoms: _497  and  _498
REMARK  200  A    between atoms: _497  and  _500
REMARK  201  A    between atoms: _500  and  _501
REMARK  202  A    between atoms: _506  and  _507
REMARK  203  A    between atoms: _509  and  _511
REMARK  204  A    between atoms: _511  and  _512
REMARK  205  A    between atoms: _511  and  _514
REMARK  206  A    between atoms: _514  and  _515
REMARK  207  A    between atoms: _518  and  _520
REMARK  208  A    between atoms: _520  and  _521
REMARK  209  A    between atoms: _520  and  _523
REMARK  210  A    between atoms: _523  and  _524
REMARK  211  A    between atoms: _534  and  _536
REMARK  212  A    between atoms: _536  and  _537
REMARK  213  A    between atoms: _540  and  _542
REMARK  214  A    between atoms: _542  and  _543
REMARK  215  A    between atoms: _546  and  _548
REMARK  216  A    between atoms: _548  and  _549
REMARK  217  A    between atoms: _548  and  _551
REMARK  218  A    between atoms: _551  and  _552
REMARK  219  A    between atoms: _555  and  _557
REMARK  220  A    between atoms: _557  and  _558
REMARK  221  A    between atoms: _557  and  _560
REMARK  222  A    between atoms: _560  and  _561
REMARK  223  A    between atoms: _564  and  _566
REMARK  224  A    between atoms: _566  and  _567
REMARK  225  A    between atoms: _566  and  _569
REMARK  226  A    between atoms: _569  and  _570
REMARK  227  A    between atoms: _573  and  _575
REMARK  228  A    between atoms: _575  and  _576
REMARK  229  A    between atoms: _575  and  _578
REMARK  230  A    between atoms: _578  and  _579
REMARK  231  A    between atoms: _579  and  _580
REMARK  232  A    between atoms: _580  and  _581
REMARK  233  A    between atoms: _581  and  _582
REMARK  234  A    between atoms: _586  and  _588
REMARK  235  A    between atoms: _588  and  _589
REMARK  236  A    between atoms: _588  and  _591
REMARK  237  A    between atoms: _591  and  _592
REMARK  238  A    between atoms: _597  and  _599
REMARK  239  A    between atoms: _599  and  _600
REMARK  240  A    between atoms: _599  and  _602
REMARK  241  A    between atoms: _602  and  _603
REMARK  242  A    between atoms: _603  and  _604
REMARK  243  A    between atoms: _604  and  _605
REMARK  244  A    between atoms: _605  and  _606
REMARK  245  A    between atoms: _610  and  _612
REMARK  246  A    between atoms: _612  and  _613
REMARK  247  A    between atoms: _612  and  _615
REMARK  248  A    between atoms: _615  and  _616
REMARK  249  A    between atoms: _626  and  _628
REMARK  250  A    between atoms: _628  and  _629
REMARK  251  A    between atoms: _628  and  _631
REMARK  252  A    between atoms: _631  and  _632
REMARK  253  A    between atoms: _632  and  _633
REMARK  254  A    between atoms: _636  and  _638
REMARK  255  A    between atoms: _638  and  _639
REMARK  256  A    between atoms: _642  and  _644
REMARK  257  A    between atoms: _644  and  _645
REMARK  258  A    between atoms: _647  and  _649
REMARK  259  A    between atoms: _649  and  _650
REMARK  260  A    between atoms: _649  and  _652
REMARK  261  A    between atoms: _652  and  _653
REMARK  262  A    between atoms: _653  and  _654
REMARK  263  A    between atoms: _657  and  _659
REMARK  264  A    between atoms: _659  and  _660
REMARK  265  A    between atoms: _663  and  _665
REMARK  266  A    between atoms: _665  and  _666
REMARK  267  A    between atoms: _665  and  _668
REMARK  268  A    between atoms: _668  and  _669
REMARK  269  A    between atoms: _669  and  _670
REMARK  270  A    between atoms: _673  and  _675
REMARK  271  A    between atoms: _675  and  _676
REMARK  272  A    between atoms: _675  and  _678
REMARK  273  A    between atoms: _678  and  _679
REMARK  274  A    between atoms: _679  and  _680
REMARK  275  A    between atoms: _680  and  _681
REMARK  276  A    between atoms: _690  and  _692
REMARK  277  A    between atoms: _692  and  _693
REMARK  278  A    between atoms: _692  and  _695
REMARK  279  A    between atoms: _695  and  _696
REMARK  280  A    between atoms: _699  and  _701
REMARK  281  A    between atoms: _701  and  _702
REMARK  282  A    between atoms: _701  and  _704
REMARK  283  A    between atoms: _704  and  _705
REMARK  284  A    between atoms: _705  and  _706
REMARK  285  A    between atoms: _706  and  _707
REMARK  286  A    between atoms: _716  and  _718
REMARK  287  A    between atoms: _718  and  _719
REMARK  288  A    between atoms: _722  and  _724
REMARK  289  A    between atoms: _724  and  _725
REMARK  290  A    between atoms: _724  and  _727
REMARK  291  A    between atoms: _727  and  _728
REMARK  292  A    between atoms: _733  and  _734
REMARK  293  A    between atoms: _736  and  _738
REMARK  294  A    between atoms: _738  and  _739
REMARK  295  A    between atoms: _738  and  _741
REMARK  296  A    between atoms: _741  and  _742
REMARK  297  A    between atoms: _745  and  _747
REMARK  298  A    between atoms: _747  and  _748
REMARK  299  A    between atoms: _747  and  _750
REMARK  300  A    between atoms: _750  and  _751
REMARK  301  A    between atoms: _754  and  _756
REMARK  302  A    between atoms: _756  and  _757
REMARK  303  A    between atoms: _756  and  _759
REMARK  304  A    between atoms: _761  and  _763
REMARK  305  A    between atoms: _763  and  _764
REMARK  306  A    between atoms: _763  and  _766
REMARK  307  A    between atoms: _769  and  _771
REMARK  308  A    between atoms: _771  and  _772
REMARK  309  A    between atoms: _771  and  _774
REMARK  310  A    between atoms: _774  and  _775
REMARK  311  A    between atoms: _775  and  _776
REMARK  312  A    between atoms: _779  and  _781
REMARK  313  A    between atoms: _781  and  _782
REMARK  314  A    between atoms: _781  and  _784
REMARK  315  A    between atoms: _784  and  _785
REMARK  316  A    between atoms: _795  and  _797
REMARK  317  A    between atoms: _797  and  _798
REMARK  318  A    between atoms: _797  and  _800
REMARK  319  A    between atoms: _800  and  _801
REMARK  320  A    between atoms: _804  and  _806
REMARK  321  A    between atoms: _806  and  _807
REMARK  322  A    between atoms: _806  and  _809
REMARK  323  A    between atoms: _809  and  _810
REMARK  324  A    between atoms: _810  and  _811
REMARK  325  A    between atoms: _811  and  _812
REMARK  326  A    between atoms: _821  and  _823
REMARK  327  A    between atoms: _823  and  _824
REMARK  328  A    between atoms: _823  and  _826
REMARK  329  A    between atoms: _826  and  _827
REMARK  330  A    between atoms: _832  and  _833
REMARK                            x       y       z     vdW  Elec       q    Type
REMARK                         _______ _______ _______ _____ _____    ______ ____
ROOT
ATOM      1  O   HOH     1      43.232  58.406   3.154  0.00  0.00    +0.000 OA
ENDROOT
TORSDOF 0
REMARK  Name = ../refined-set-2016/1fzm/1fzm_pocket.pdb
REMARK  330 active torsions:
REMARK  status: ('A' for Active; 'I' for Inactive)
REMARK    1  A    between atoms: _1  and  _3
REMARK    2  A    between atoms: _3  and  _4
REMARK    3  A    between atoms: _3  and  _6
REMARK    4  A    between atoms: _6  and  _7
REMARK    5  A    between atoms: _10  and  _12
REMARK    6  A    between atoms: _12  and  _13
REMARK    7  A    between atoms: _12  and  _15
REMARK    8  A    between atoms: _15  and  _16
REMARK    9  A    between atoms: _16  and  _17
REMARK   10  A    between atoms: _17  and  _18
REMARK   11  A    between atoms: _27  and  _29
REMARK   12  A    between atoms: _29  and  _30
REMARK   13  A    between atoms: _29  and  _32
REMARK   14  A    between atoms: _32  and  _33
REMARK   15  A    between atoms: _38  and  _39
REMARK   16  A    between atoms: _41  and  _43
REMARK   17  A    between atoms: _43  and  _44
REMARK   18  A    between atoms: _43  and  _46
REMARK   19  A    between atoms: _46  and  _47
REMARK   20  A    between atoms: _53  and  _55
REMARK   21  A    between atoms: _55  and  _56
REMARK   22  A    between atoms: _55  and  _58
REMARK   23  A    between atoms: _61  and  _63
REMARK   24  A    between atoms: _63  and  _64
REMARK   25  A    between atoms: _63  and  _66
REMARK   26  A    between atoms: _66  and  _67
REMARK   27  A    between atoms: _70  and  _72
REMARK   28  A    between atoms: _72  and  _73
REMARK   29  A    between atoms: _72  and  _75
REMARK   30  A    between atoms: _75  and  _76
REMARK   31  A    between atoms: _82  and  _84
REMARK   32  A    between atoms: _84  and  _85
REMARK   33  A    between atoms: _84  and  _87
REMARK   34  A    between atoms: _87  and  _88
REMARK   35  A    between atoms: _90  and  _92
REMARK   36  A    between atoms: _92  and  _93
REMARK   37  A    between atoms: _92  and  _95
REMARK   38  A    between atoms: _98  and  _100
REMARK   39  A    between atoms: _100  and  _101
REMARK   40  A    between atoms: _100  and  _103
REMARK   41  A    between atoms: _103  and  _104
REMARK   42  A    between atoms: _110  and  _112
REMARK   43  A    between atoms: _112  and  _113
REMARK   44  A    between atoms: _112  and  _115
REMARK   45  A    between atoms: _118  and  _120
REMARK   46  A    between atoms: _120  and  _121
REMARK   47  A    between atoms: _120  and  _123
REMARK   48  A    between atoms: _123  and  _124
REMARK   49  A    between atoms: _129  and  _130
REMARK   50  A    between atoms: _132  and  _134
REMARK   51  A    between atoms: _134  and  _135
REMARK   52  A    between atoms: _134  and  _137
REMARK   53  A    between atoms: _137  and  _138
REMARK   54  A    between atoms: _138  and  _139
REMARK   55  A    between atoms: _141  and  _143
REMARK   56  A    between atoms: _143  and  _144
REMARK   57  A    between atoms: _143  and  _146
REMARK   58  A    between atoms: _146  and  _147
REMARK   59  A    between atoms: _147  and  _148
REMARK   60  A    between atoms: _151  and  _153
REMARK   61  A    between atoms: _153  and  _154
REMARK   62  A    between atoms: _156  and  _158
REMARK   63  A    between atoms: _158  and  _159
REMARK   64  A    between atoms: _158  and  _161
REMARK   65  A    between atoms: _161  and  _162
REMARK   66  A    between atoms: _162  and  _163
REMARK   67  A    between atoms: _166  and  _168
REMARK   68  A    between atoms: _168  and  _169
REMARK   69  A    between atoms: _168  and  _171
REMARK   70  A    between atoms: _171  and  _172
REMARK   71  A    between atoms: _177  and  _178
REMARK   72  A    between atoms: _180  and  _182
REMARK   73  A    between atoms: _182  and  _183
REMARK   74  A    between atoms: _182  and  _185
REMARK   75  A    between atoms: _185  and  _186
REMARK   76  A    between atoms: _196  and  _198
REMARK   77  A    between atoms: _198  and  _199
REMARK   78  A    between atoms: _198  and  _201
REMARK   79  A    between atoms: _201  and  _202
REMARK   80  A    between atoms: _202  and  _203
REMARK   81  A    between atoms: _203  and  _204
REMARK   82  A    between atoms: _213  and  _215
REMARK   83  A    between atoms: _215  and  _216
REMARK   84  A    between atoms: _215  and  _218
REMARK   85  A    between atoms: _218  and  _219
REMARK   86  A    between atoms: _219  and  _220
REMARK   87  A    between atoms: _223  and  _225
REMARK   88  A    between atoms: _225  and  _226
REMARK   89  A    between atoms: _225  and  _228
REMARK   90  A    between atoms: _228  and  _229
REMARK   91  A    between atoms: _229  and  _230
REMARK   92  A    between atoms: _235  and  _237
REMARK   93  A    between atoms: _237  and  _238
REMARK   94  A    between atoms: _237  and  _240
REMARK   95  A    between atoms: _240  and  _241
REMARK   96  A    between atoms: _241  and  _242
REMARK   97  A    between atoms: _242  and  _243
REMARK   98  A    between atoms: _243  and  _244
REMARK   99  A    between atoms: _248  and  _250
REMARK  100  A    between atoms: _250  and  _251
REMARK  101  A    between atoms: _254  and  _256
REMARK  102  A    between atoms: _256  and  _257
REMARK  103  A    between atoms: _259  and  _261
REMARK  104  A    between atoms: _261  and  _262
REMARK  105  A    between atoms: _261  and  _264
REMARK  106  A    between atoms: _264  and  _265
REMARK  107  A    between atoms: _270  and  _272
REMARK  108  A    between atoms: _272  and  _273
REMARK  109  A    between atoms: _272  and  _275
REMARK  110  A    between atoms: _275  and  _276
REMARK  111  A    between atoms: _276  and  _277
REMARK  112  A    between atoms: _280  and  _282
REMARK  113  A    between atoms: _282  and  _283
REMARK  114  A    between atoms: _282  and  _285
REMARK  115  A    between atoms: _285  and  _286
REMARK  116  A    between atoms: _288  and  _290
REMARK  117  A    between atoms: _290  and  _291
REMARK  118  A    between atoms: _290  and  _293
REMARK  119  A    between atoms: _293  and  _294
REMARK  120  A    between atoms: _300  and  _302
REMARK  121  A    between atoms: _302  and  _303
REMARK  122  A    between atoms: _302  and  _305
REMARK  123  A    between atoms: _308  and  _310
REMARK  124  A    between atoms: _310  and  _311
REMARK  125  A    between atoms: _310  and  _313
REMARK  126  A    between atoms: _313  and  _314
REMARK  127  A    between atoms: _317  and  _319
REMARK  128  A    between atoms: _319  and  _320
REMARK  129  A    between atoms: _319  and  _322
REMARK  130  A    between atoms: _322  and  _323
REMARK  131  A    between atoms: _326  and  _328
REMARK  132  A    between atoms: _328  and  _329
REMARK  133  A    between atoms: _328  and  _331
REMARK  134  A    between atoms: _331  and  _332
REMARK  135  A    between atoms: _335  and  _337
REMARK  136  A    between atoms: _337  and  _338
REMARK  137  A    between atoms: _337  and  _340
REMARK  138  A    between atoms: _340  and  _341
REMARK  139  A    between atoms: _344  and  _346
REMARK  140  A    between atoms: _346  and  _347
REMARK  141  A    between atoms: _346  and  _349
REMARK  142  A    between atoms: _349  and  _350
REMARK  143  A    between atoms: _355  and  _356
REMARK  144  A    between atoms: _358  and  _360
REMARK  145  A    between atoms: _360  and  _361
REMARK  146  A    between atoms: _360  and  _363
REMARK  147  A    between atoms: _363  and  _364
REMARK  148  A    between atoms: _369  and  _370
REMARK  149  A    between atoms: _372  and  _374
REMARK  150  A    between atoms: _374  and  _375
REMARK  151  A    between atoms: _374  and  _377
REMARK  152  A    between atoms: _377  and  _378
REMARK  153  A    between atoms: _381  and  _383
REMARK  154  A    between atoms: _383  and  _384
REMARK  155  A    between atoms: _383  and  _386
REMARK  156  A    between atoms: _386  and  _387
REMARK  157  A    between atoms: _387  and  _388
REMARK  158  A    between atoms: _393  and  _395
REMARK  159  A    between atoms: _395  and  _396
REMARK  160  A    between atoms: _395  and  _398
REMARK  161  A    between atoms: _401  and  _403
REMARK  162  A    between atoms: _403  and  _404
REMARK  163  A    between atoms: _403  and  _406
REMARK  164  A    between atoms: _406  and  _407
REMARK  165  A    between atoms: _410  and  _412
REMARK  166  A    between atoms: _412  and  _413
REMARK  167  A    between atoms: _412  and  _415
REMARK  168  A    between atoms: _415  and  _416
REMARK  169  A    between atoms: _418  and  _420
REMARK  170  A    between atoms: _420  and  _421
REMARK  171  A    between atoms: _423  and  _425
REMARK  172  A    between atoms: _425  and  _426
REMARK  173  A    between atoms: _425  and  _428
REMARK  174  A    between atoms: _428  and  _429
REMARK  175  A    between atoms: _434  and  _435
REMARK  176  A    between atoms: _437  and  _439
REMARK  177  A    between atoms: _439  and  _440
REMARK  178  A    between atoms: _439  and  _442
REMARK  179  A    between atoms: _442  and  _443
REMARK  180  A    between atoms: _443  and  _444
REMARK  181  A    between atoms: _449  and  _451
REMARK  182  A    between atoms: _451  and  _452
REMARK  183  A    between atoms: _451  and  _454
REMARK  184  A    between atoms: _454  and  _455
REMARK  185  A    between atoms: _455  and  _456
REMARK  186  A    between atoms: _461  and  _463
REMARK  187  A    between atoms: _463  and  _464
REMARK  188  A    between atoms: _463  and  _466
REMARK  189  A    between atoms: _466  and  _467
REMARK  190  A    between atoms: _472  and  _473
REMARK  191  A    between atoms: _475  and  _477
REMARK  192  A    between atoms: _477  and  _478
REMARK  193  A    between atoms: _481  and  _483
REMARK  194  A    between atoms: _483  and  _484
REMARK  195  A    between atoms: _483  and  _486
REMARK  196  A    between atoms: _486  and  _487
REMARK  197  A    between atoms: _492  and  _493
REMARK  198  A    between atoms: _495  and  _497
REMARK  199  A    between atoms: _497  and  _498
REMARK  200  A    between atoms: _497  and  _500
REMARK  201  A    between atoms: _500  and  _501
REMARK  202  A    between atoms: _506  and  _507
REMARK  203  A    between atoms: _509  and  _511
REMARK  204  A    between atoms: _511  and  _512
REMARK  205  A    between atoms: _511  and  _514
REMARK  206  A    between atoms: _514  and  _515
REMARK  207  A    between atoms: _518  and  _520
REMARK  208  A    between atoms: _520  and  _521
REMARK  209  A    between atoms: _520  and  _523
REMARK  210  A    between atoms: _523  and  _524
REMARK  211  A    between atoms: _534  and  _536
REMARK  212  A    between atoms: _536  and  _537
REMARK  213  A    between atoms: _540  and  _542
REMARK  214  A    between atoms: _542  and  _543
REMARK  215  A    between atoms: _546  and  _548
REMARK  216  A    between atoms: _548  and  _549
REMARK  217  A    between atoms: _548  and  _551
REMARK  218  A    between atoms: _551  and  _552
REMARK  219  A    between atoms: _555  and  _557
REMARK  220  A    between atoms: _557  and  _558
REMARK  221  A    between atoms: _557  and  _560
REMARK  222  A    between atoms: _560  and  _561
REMARK  223  A    between atoms: _564  and  _566
REMARK  224  A    between atoms: _566  and  _567
REMARK  225  A    between atoms: _566  and  _569
REMARK  226  A    between atoms: _569  and  _570
REMARK  227  A    between atoms: _573  and  _575
REMARK  228  A    between atoms: _575  and  _576
REMARK  229  A    between atoms: _575  and  _578
REMARK  230  A    between atoms: _578  and  _579
REMARK  231  A    between atoms: _579  and  _580
REMARK  232  A    between atoms: _580  and  _581
REMARK  233  A    between atoms: _581  and  _582
REMARK  234  A    between atoms: _586  and  _588
REMARK  235  A    between atoms: _588  and  _589
REMARK  236  A    between atoms: _588  and  _591
REMARK  237  A    between atoms: _591  and  _592
REMARK  238  A    between atoms: _597  and  _599
REMARK  239  A    between atoms: _599  and  _600
REMARK  240  A    between atoms: _599  and  _602
REMARK  241  A    between atoms: _602  and  _603
REMARK  242  A    between atoms: _603  and  _604
REMARK  243  A    between atoms: _604  and  _605
REMARK  244  A    between atoms: _605  and  _606
REMARK  245  A    between atoms: _610  and  _612
REMARK  246  A    between atoms: _612  and  _613
REMARK  247  A    between atoms: _612  and  _615
REMARK  248  A    between atoms: _615  and  _616
REMARK  249  A    between atoms: _626  and  _628
REMARK  250  A    between atoms: _628  and  _629
REMARK  251  A    between atoms: _628  and  _631
REMARK  252  A    between atoms: _631  and  _632
REMARK  253  A    between atoms: _632  and  _633
REMARK  254  A    between atoms: _636  and  _638
REMARK  255  A    between atoms: _638  and  _639
REMARK  256  A    between atoms: _642  and  _644
REMARK  257  A    between atoms: _644  and  _645
REMARK  258  A    between atoms: _647  and  _649
REMARK  259  A    between atoms: _649  and  _650
REMARK  260  A    between atoms: _649  and  _652
REMARK  261  A    between atoms: _652  and  _653
REMARK  262  A    between atoms: _653  and  _654
REMARK  263  A    between atoms: _657  and  _659
REMARK  264  A    between atoms: _659  and  _660
REMARK  265  A    between atoms: _663  and  _665
REMARK  266  A    between atoms: _665  and  _666
REMARK  267  A    between atoms: _665  and  _668
REMARK  268  A    between atoms: _668  and  _669
REMARK  269  A    between atoms: _669  and  _670
REMARK  270  A    between atoms: _673  and  _675
REMARK  271  A    between atoms: _675  and  _676
REMARK  272  A    between atoms: _675  and  _678
REMARK  273  A    between atoms: _678  and  _679
REMARK  274  A    between atoms: _679  and  _680
REMARK  275  A    between atoms: _680  and  _681
REMARK  276  A    between atoms: _690  and  _692
REMARK  277  A    between atoms: _692  and  _693
REMARK  278  A    between atoms: _692  and  _695
REMARK  279  A    between atoms: _695  and  _696
REMARK  280  A    between atoms: _699  and  _701
REMARK  281  A    between atoms: _701  and  _702
REMARK  282  A    between atoms: _701  and  _704
REMARK  283  A    between atoms: _704  and  _705
REMARK  284  A    between atoms: _705  and  _706
REMARK  285  A    between atoms: _706  and  _707
REMARK  286  A    between atoms: _716  and  _718
REMARK  287  A    between atoms: _718  and  _719
REMARK  288  A    between atoms: _722  and  _724
REMARK  289  A    between atoms: _724  and  _725
REMARK  290  A    between atoms: _724  and  _727
REMARK  291  A    between atoms: _727  and  _728
REMARK  292  A    between atoms: _733  and  _734
REMARK  293  A    between atoms: _736  and  _738
REMARK  294  A    between atoms: _738  and  _739
REMARK  295  A    between atoms: _738  and  _741
REMARK  296  A    between atoms: _741  and  _742
REMARK  297  A    between atoms: _745  and  _747
REMARK  298  A    between atoms: _747  and  _748
REMARK  299  A    between atoms: _747  and  _750
REMARK  300  A    between atoms: _750  and  _751
REMARK  301  A    between atoms: _754  and  _756
REMARK  302  A    between atoms: _756  and  _757
REMARK  303  A    between atoms: _756  and  _759
REMARK  304  A    between atoms: _761  and  _763
REMARK  305  A    between atoms: _763  and  _764
REMARK  306  A    between atoms: _763  and  _766
REMARK  307  A    between atoms: _769  and  _771
REMARK  308  A    between atoms: _771  and  _772
REMARK  309  A    between atoms: _771  and  _774
REMARK  310  A    between atoms: _774  and  _775
REMARK  311  A    between atoms: _775  and  _776
REMARK  312  A    between atoms: _779  and  _781
REMARK  313  A    between atoms: _781  and  _782
REMARK  314  A    between atoms: _781  and  _784
REMARK  315  A    between atoms: _784  and  _785
REMARK  316  A    between atoms: _795  and  _797
REMARK  317  A    between atoms: _797  and  _798
REMARK  318  A    between atoms: _797  and  _800
REMARK  319  A    between atoms: _800  and  _801
REMARK  320  A    between atoms: _804  and  _806
REMARK  321  A    between atoms: _806  and  _807
REMARK  322  A    between atoms: _806  and  _809
REMARK  323  A    between atoms: _809  and  _810
REMARK  324  A    between atoms: _810  and  _811
REMARK  325  A    between atoms: _811  and  _812
REMARK  326  A    between atoms: _821  and  _823
REMARK  327  A    between atoms: _823  and  _824
REMARK  328  A    between atoms: _823  and  _826
REMARK  329  A    between atoms: _826  and  _827
REMARK  330  A    between atoms: _832  and  _833
REMARK                            x       y       z     vdW  Elec       q    Type
REMARK                         _______ _______ _______ _____ _____    ______ ____
ROOT
ATOM      1  O   HOH     1      47.622  64.912  -4.372  0.00  0.00    +0.000 OA
ENDROOT
TORSDOF 0
REMARK  Name = ../refined-set-2016/1fzm/1fzm_pocket.pdb
REMARK  330 active torsions:
REMARK  status: ('A' for Active; 'I' for Inactive)
REMARK    1  A    between atoms: _1  and  _3
REMARK    2  A    between atoms: _3  and  _4
REMARK    3  A    between atoms: _3  and  _6
REMARK    4  A    between atoms: _6  and  _7
REMARK    5  A    between atoms: _10  and  _12
REMARK    6  A    between atoms: _12  and  _13
REMARK    7  A    between atoms: _12  and  _15
REMARK    8  A    between atoms: _15  and  _16
REMARK    9  A    between atoms: _16  and  _17
REMARK   10  A    between atoms: _17  and  _18
REMARK   11  A    between atoms: _27  and  _29
REMARK   12  A    between atoms: _29  and  _30
REMARK   13  A    between atoms: _29  and  _32
REMARK   14  A    between atoms: _32  and  _33
REMARK   15  A    between atoms: _38  and  _39
REMARK   16  A    between atoms: _41  and  _43
REMARK   17  A    between atoms: _43  and  _44
REMARK   18  A    between atoms: _43  and  _46
REMARK   19  A    between atoms: _46  and  _47
REMARK   20  A    between atoms: _53  and  _55
REMARK   21  A    between atoms: _55  and  _56
REMARK   22  A    between atoms: _55  and  _58
REMARK   23  A    between atoms: _61  and  _63
REMARK   24  A    between atoms: _63  and  _64
REMARK   25  A    between atoms: _63  and  _66
REMARK   26  A    between atoms: _66  and  _67
REMARK   27  A    between atoms: _70  and  _72
REMARK   28  A    between atoms: _72  and  _73
REMARK   29  A    between atoms: _72  and  _75
REMARK   30  A    between atoms: _75  and  _76
REMARK   31  A    between atoms: _82  and  _84
REMARK   32  A    between atoms: _84  and  _85
REMARK   33  A    between atoms: _84  and  _87
REMARK   34  A    between atoms: _87  and  _88
REMARK   35  A    between atoms: _90  and  _92
REMARK   36  A    between atoms: _92  and  _93
REMARK   37  A    between atoms: _92  and  _95
REMARK   38  A    between atoms: _98  and  _100
REMARK   39  A    between atoms: _100  and  _101
REMARK   40  A    between atoms: _100  and  _103
REMARK   41  A    between atoms: _103  and  _104
REMARK   42  A    between atoms: _110  and  _112
REMARK   43  A    between atoms: _112  and  _113
REMARK   44  A    between atoms: _112  and  _115
REMARK   45  A    between atoms: _118  and  _120
REMARK   46  A    between atoms: _120  and  _121
REMARK   47  A    between atoms: _120  and  _123
REMARK   48  A    between atoms: _123  and  _124
REMARK   49  A    between atoms: _129  and  _130
REMARK   50  A    between atoms: _132  and  _134
REMARK   51  A    between atoms: _134  and  _135
REMARK   52  A    between atoms: _134  and  _137
REMARK   53  A    between atoms: _137  and  _138
REMARK   54  A    between atoms: _138  and  _139
REMARK   55  A    between atoms: _141  and  _143
REMARK   56  A    between atoms: _143  and  _144
REMARK   57  A    between atoms: _143  and  _146
REMARK   58  A    between atoms: _146  and  _147
REMARK   59  A    between atoms: _147  and  _148
REMARK   60  A    between atoms: _151  and  _153
REMARK   61  A    between atoms: _153  and  _154
REMARK   62  A    between atoms: _156  and  _158
REMARK   63  A    between atoms: _158  and  _159
REMARK   64  A    between atoms: _158  and  _161
REMARK   65  A    between atoms: _161  and  _162
REMARK   66  A    between atoms: _162  and  _163
REMARK   67  A    between atoms: _166  and  _168
REMARK   68  A    between atoms: _168  and  _169
REMARK   69  A    between atoms: _168  and  _171
REMARK   70  A    between atoms: _171  and  _172
REMARK   71  A    between atoms: _177  and  _178
REMARK   72  A    between atoms: _180  and  _182
REMARK   73  A    between atoms: _182  and  _183
REMARK   74  A    between atoms: _182  and  _185
REMARK   75  A    between atoms: _185  and  _186
REMARK   76  A    between atoms: _196  and  _198
REMARK   77  A    between atoms: _198  and  _199
REMARK   78  A    between atoms: _198  and  _201
REMARK   79  A    between atoms: _201  and  _202
REMARK   80  A    between atoms: _202  and  _203
REMARK   81  A    between atoms: _203  and  _204
REMARK   82  A    between atoms: _213  and  _215
REMARK   83  A    between atoms: _215  and  _216
REMARK   84  A    between atoms: _215  and  _218
REMARK   85  A    between atoms: _218  and  _219
REMARK   86  A    between atoms: _219  and  _220
REMARK   87  A    between atoms: _223  and  _225
REMARK   88  A    between atoms: _225  and  _226
REMARK   89  A    between atoms: _225  and  _228
REMARK   90  A    between atoms: _228  and  _229
REMARK   91  A    between atoms: _229  and  _230
REMARK   92  A    between atoms: _235  and  _237
REMARK   93  A    between atoms: _237  and  _238
REMARK   94  A    between atoms: _237  and  _240
REMARK   95  A    between atoms: _240  and  _241
REMARK   96  A    between atoms: _241  and  _242
REMARK   97  A    between atoms: _242  and  _243
REMARK   98  A    between atoms: _243  and  _244
REMARK   99  A    between atoms: _248  and  _250
REMARK  100  A    between atoms: _250  and  _251
REMARK  101  A    between atoms: _254  and  _256
REMARK  102  A    between atoms: _256  and  _257
REMARK  103  A    between atoms: _259  and  _261
REMARK  104  A    between atoms: _261  and  _262
REMARK  105  A    between atoms: _261  and  _264
REMARK  106  A    between atoms: _264  and  _265
REMARK  107  A    between atoms: _270  and  _272
REMARK  108  A    between atoms: _272  and  _273
REMARK  109  A    between atoms: _272  and  _275
REMARK  110  A    between atoms: _275  and  _276
REMARK  111  A    between atoms: _276  and  _277
REMARK  112  A    between atoms: _280  and  _282
REMARK  113  A    between atoms: _282  and  _283
REMARK  114  A    between atoms: _282  and  _285
REMARK  115  A    between atoms: _285  and  _286
REMARK  116  A    between atoms: _288  and  _290
REMARK  117  A    between atoms: _290  and  _291
REMARK  118  A    between atoms: _290  and  _293
REMARK  119  A    between atoms: _293  and  _294
REMARK  120  A    between atoms: _300  and  _302
REMARK  121  A    between atoms: _302  and  _303
REMARK  122  A    between atoms: _302  and  _305
REMARK  123  A    between atoms: _308  and  _310
REMARK  124  A    between atoms: _310  and  _311
REMARK  125  A    between atoms: _310  and  _313
REMARK  126  A    between atoms: _313  and  _314
REMARK  127  A    between atoms: _317  and  _319
REMARK  128  A    between atoms: _319  and  _320
REMARK  129  A    between atoms: _319  and  _322
REMARK  130  A    between atoms: _322  and  _323
REMARK  131  A    between atoms: _326  and  _328
REMARK  132  A    between atoms: _328  and  _329
REMARK  133  A    between atoms: _328  and  _331
REMARK  134  A    between atoms: _331  and  _332
REMARK  135  A    between atoms: _335  and  _337
REMARK  136  A    between atoms: _337  and  _338
REMARK  137  A    between atoms: _337  and  _340
REMARK  138  A    between atoms: _340  and  _341
REMARK  139  A    between atoms: _344  and  _346
REMARK  140  A    between atoms: _346  and  _347
REMARK  141  A    between atoms: _346  and  _349
REMARK  142  A    between atoms: _349  and  _350
REMARK  143  A    between atoms: _355  and  _356
REMARK  144  A    between atoms: _358  and  _360
REMARK  145  A    between atoms: _360  and  _361
REMARK  146  A    between atoms: _360  and  _363
REMARK  147  A    between atoms: _363  and  _364
REMARK  148  A    between atoms: _369  and  _370
REMARK  149  A    between atoms: _372  and  _374
REMARK  150  A    between atoms: _374  and  _375
REMARK  151  A    between atoms: _374  and  _377
REMARK  152  A    between atoms: _377  and  _378
REMARK  153  A    between atoms: _381  and  _383
REMARK  154  A    between atoms: _383  and  _384
REMARK  155  A    between atoms: _383  and  _386
REMARK  156  A    between atoms: _386  and  _387
REMARK  157  A    between atoms: _387  and  _388
REMARK  158  A    between atoms: _393  and  _395
REMARK  159  A    between atoms: _395  and  _396
REMARK  160  A    between atoms: _395  and  _398
REMARK  161  A    between atoms: _401  and  _403
REMARK  162  A    between atoms: _403  and  _404
REMARK  163  A    between atoms: _403  and  _406
REMARK  164  A    between atoms: _406  and  _407
REMARK  165  A    between atoms: _410  and  _412
REMARK  166  A    between atoms: _412  and  _413
REMARK  167  A    between atoms: _412  and  _415
REMARK  168  A    between atoms: _415  and  _416
REMARK  169  A    between atoms: _418  and  _420
REMARK  170  A    between atoms: _420  and  _421
REMARK  171  A    between atoms: _423  and  _425
REMARK  172  A    between atoms: _425  and  _426
REMARK  173  A    between atoms: _425  and  _428
REMARK  174  A    between atoms: _428  and  _429
REMARK  175  A    between atoms: _434  and  _435
REMARK  176  A    between atoms: _437  and  _439
REMARK  177  A    between atoms: _439  and  _440
REMARK  178  A    between atoms: _439  and  _442
REMARK  179  A    between atoms: _442  and  _443
REMARK  180  A    between atoms: _443  and  _444
REMARK  181  A    between atoms: _449  and  _451
REMARK  182  A    between atoms: _451  and  _452
REMARK  183  A    between atoms: _451  and  _454
REMARK  184  A    between atoms: _454  and  _455
REMARK  185  A    between atoms: _455  and  _456
REMARK  186  A    between atoms: _461  and  _463
REMARK  187  A    between atoms: _463  and  _464
REMARK  188  A    between atoms: _463  and  _466
REMARK  189  A    between atoms: _466  and  _467
REMARK  190  A    between atoms: _472  and  _473
REMARK  191  A    between atoms: _475  and  _477
REMARK  192  A    between atoms: _477  and  _478
REMARK  193  A    between atoms: _481  and  _483
REMARK  194  A    between atoms: _483  and  _484
REMARK  195  A    between atoms: _483  and  _486
REMARK  196  A    between atoms: _486  and  _487
REMARK  197  A    between atoms: _492  and  _493
REMARK  198  A    between atoms: _495  and  _497
REMARK  199  A    between atoms: _497  and  _498
REMARK  200  A    between atoms: _497  and  _500
REMARK  201  A    between atoms: _500  and  _501
REMARK  202  A    between atoms: _506  and  _507
REMARK  203  A    between atoms: _509  and  _511
REMARK  204  A    between atoms: _511  and  _512
REMARK  205  A    between atoms: _511  and  _514
REMARK  206  A    between atoms: _514  and  _515
REMARK  207  A    between atoms: _518  and  _520
REMARK  208  A    between atoms: _520  and  _521
REMARK  209  A    between atoms: _520  and  _523
REMARK  210  A    between atoms: _523  and  _524
REMARK  211  A    between atoms: _534  and  _536
REMARK  212  A    between atoms: _536  and  _537
REMARK  213  A    between atoms: _540  and  _542
REMARK  214  A    between atoms: _542  and  _543
REMARK  215  A    between atoms: _546  and  _548
REMARK  216  A    between atoms: _548  and  _549
REMARK  217  A    between atoms: _548  and  _551
REMARK  218  A    between atoms: _551  and  _552
REMARK  219  A    between atoms: _555  and  _557
REMARK  220  A    between atoms: _557  and  _558
REMARK  221  A    between atoms: _557  and  _560
REMARK  222  A    between atoms: _560  and  _561
REMARK  223  A    between atoms: _564  and  _566
REMARK  224  A    between atoms: _566  and  _567
REMARK  225  A    between atoms: _566  and  _569
REMARK  226  A    between atoms: _569  and  _570
REMARK  227  A    between atoms: _573  and  _575
REMARK  228  A    between atoms: _575  and  _576
REMARK  229  A    between atoms: _575  and  _578
REMARK  230  A    between atoms: _578  and  _579
REMARK  231  A    between atoms: _579  and  _580
REMARK  232  A    between atoms: _580  and  _581
REMARK  233  A    between atoms: _581  and  _582
REMARK  234  A    between atoms: _586  and  _588
REMARK  235  A    between atoms: _588  and  _589
REMARK  236  A    between atoms: _588  and  _591
REMARK  237  A    between atoms: _591  and  _592
REMARK  238  A    between atoms: _597  and  _599
REMARK  239  A    between atoms: _599  and  _600
REMARK  240  A    between atoms: _599  and  _602
REMARK  241  A    between atoms: _602  and  _603
REMARK  242  A    between atoms: _603  and  _604
REMARK  243  A    between atoms: _604  and  _605
REMARK  244  A    between atoms: _605  and  _606
REMARK  245  A    between atoms: _610  and  _612
REMARK  246  A    between atoms: _612  and  _613
REMARK  247  A    between atoms: _612  and  _615
REMARK  248  A    between atoms: _615  and  _616
REMARK  249  A    between atoms: _626  and  _628
REMARK  250  A    between atoms: _628  and  _629
REMARK  251  A    between atoms: _628  and  _631
REMARK  252  A    between atoms: _631  and  _632
REMARK  253  A    between atoms: _632  and  _633
REMARK  254  A    between atoms: _636  and  _638
REMARK  255  A    between atoms: _638  and  _639
REMARK  256  A    between atoms: _642  and  _644
REMARK  257  A    between atoms: _644  and  _645
REMARK  258  A    between atoms: _647  and  _649
REMARK  259  A    between atoms: _649  and  _650
REMARK  260  A    between atoms: _649  and  _652
REMARK  261  A    between atoms: _652  and  _653
REMARK  262  A    between atoms: _653  and  _654
REMARK  263  A    between atoms: _657  and  _659
REMARK  264  A    between atoms: _659  and  _660
REMARK  265  A    between atoms: _663  and  _665
REMARK  266  A    between atoms: _665  and  _666
REMARK  267  A    between atoms: _665  and  _668
REMARK  268  A    between atoms: _668  and  _669
REMARK  269  A    between atoms: _669  and  _670
REMARK  270  A    between atoms: _673  and  _675
REMARK  271  A    between atoms: _675  and  _676
REMARK  272  A    between atoms: _675  and  _678
REMARK  273  A    between atoms: _678  and  _679
REMARK  274  A    between atoms: _679  and  _680
REMARK  275  A    between atoms: _680  and  _681
REMARK  276  A    between atoms: _690  and  _692
REMARK  277  A    between atoms: _692  and  _693
REMARK  278  A    between atoms: _692  and  _695
REMARK  279  A    between atoms: _695  and  _696
REMARK  280  A    between atoms: _699  and  _701
REMARK  281  A    between atoms: _701  and  _702
REMARK  282  A    between atoms: _701  and  _704
REMARK  283  A    between atoms: _704  and  _705
REMARK  284  A    between atoms: _705  and  _706
REMARK  285  A    between atoms: _706  and  _707
REMARK  286  A    between atoms: _716  and  _718
REMARK  287  A    between atoms: _718  and  _719
REMARK  288  A    between atoms: _722  and  _724
REMARK  289  A    between atoms: _724  and  _725
REMARK  290  A    between atoms: _724  and  _727
REMARK  291  A    between atoms: _727  and  _728
REMARK  292  A    between atoms: _733  and  _734
REMARK  293  A    between atoms: _736  and  _738
REMARK  294  A    between atoms: _738  and  _739
REMARK  295  A    between atoms: _738  and  _741
REMARK  296  A    between atoms: _741  and  _742
REMARK  297  A    between atoms: _745  and  _747
REMARK  298  A    between atoms: _747  and  _748
REMARK  299  A    between atoms: _747  and  _750
REMARK  300  A    between atoms: _750  and  _751
REMARK  301  A    between atoms: _754  and  _756
REMARK  302  A    between atoms: _756  and  _757
REMARK  303  A    between atoms: _756  and  _759
REMARK  304  A    between atoms: _761  and  _763
REMARK  305  A    between atoms: _763  and  _764
REMARK  306  A    between atoms: _763  and  _766
REMARK  307  A    between atoms: _769  and  _771
REMARK  308  A    between atoms: _771  and  _772
REMARK  309  A    between atoms: _771  and  _774
REMARK  310  A    between atoms: _774  and  _775
REMARK  311  A    between atoms: _775  and  _776
REMARK  312  A    between atoms: _779  and  _781
REMARK  313  A    between atoms: _781  and  _782
REMARK  314  A    between atoms: _781  and  _784
REMARK  315  A    between atoms: _784  and  _785
REMARK  316  A    between atoms: _795  and  _797
REMARK  317  A    between atoms: _797  and  _798
REMARK  318  A    between atoms: _797  and  _800
REMARK  319  A    between atoms: _800  and  _801
REMARK  320  A    between atoms: _804  and  _806
REMARK  321  A    between atoms: _806  and  _807
REMARK  322  A    between atoms: _806  and  _809
REMARK  323  A    between atoms: _809  and  _810
REMARK  324  A    between atoms: _810  and  _811
REMARK  325  A    between atoms: _811  and  _812
REMARK  326  A    between atoms: _821  and  _823
REMARK  327  A    between atoms: _823  and  _824
REMARK  328  A    between atoms: _823  and  _826
REMARK  329  A    between atoms: _826  and  _827
REMARK  330  A    between atoms: _832  and  _833
REMARK                            x       y       z     vdW  Elec       q    Type
REMARK                         _______ _______ _______ _____ _____    ______ ____
ROOT
ATOM      1  O   HOH     1      40.066  56.399  -9.922  0.00  0.00    +0.000 OA
ENDROOT
TORSDOF 0
REMARK  Name = ../refined-set-2016/1fzm/1fzm_pocket.pdb
REMARK  330 active torsions:
REMARK  status: ('A' for Active; 'I' for Inactive)
REMARK    1  A    between atoms: _1  and  _3
REMARK    2  A    between atoms: _3  and  _4
REMARK    3  A    between atoms: _3  and  _6
REMARK    4  A    between atoms: _6  and  _7
REMARK    5  A    between atoms: _10  and  _12
REMARK    6  A    between atoms: _12  and  _13
REMARK    7  A    between atoms: _12  and  _15
REMARK    8  A    between atoms: _15  and  _16
REMARK    9  A    between atoms: _16  and  _17
REMARK   10  A    between atoms: _17  and  _18
REMARK   11  A    between atoms: _27  and  _29
REMARK   12  A    between atoms: _29  and  _30
REMARK   13  A    between atoms: _29  and  _32
REMARK   14  A    between atoms: _32  and  _33
REMARK   15  A    between atoms: _38  and  _39
REMARK   16  A    between atoms: _41  and  _43
REMARK   17  A    between atoms: _43  and  _44
REMARK   18  A    between atoms: _43  and  _46
REMARK   19  A    between atoms: _46  and  _47
REMARK   20  A    between atoms: _53  and  _55
REMARK   21  A    between atoms: _55  and  _56
REMARK   22  A    between atoms: _55  and  _58
REMARK   23  A    between atoms: _61  and  _63
REMARK   24  A    between atoms: _63  and  _64
REMARK   25  A    between atoms: _63  and  _66
REMARK   26  A    between atoms: _66  and  _67
REMARK   27  A    between atoms: _70  and  _72
REMARK   28  A    between atoms: _72  and  _73
REMARK   29  A    between atoms: _72  and  _75
REMARK   30  A    between atoms: _75  and  _76
REMARK   31  A    between atoms: _82  and  _84
REMARK   32  A    between atoms: _84  and  _85
REMARK   33  A    between atoms: _84  and  _87
REMARK   34  A    between atoms: _87  and  _88
REMARK   35  A    between atoms: _90  and  _92
REMARK   36  A    between atoms: _92  and  _93
REMARK   37  A    between atoms: _92  and  _95
REMARK   38  A    between atoms: _98  and  _100
REMARK   39  A    between atoms: _100  and  _101
REMARK   40  A    between atoms: _100  and  _103
REMARK   41  A    between atoms: _103  and  _104
REMARK   42  A    between atoms: _110  and  _112
REMARK   43  A    between atoms: _112  and  _113
REMARK   44  A    between atoms: _112  and  _115
REMARK   45  A    between atoms: _118  and  _120
REMARK   46  A    between atoms: _120  and  _121
REMARK   47  A    between atoms: _120  and  _123
REMARK   48  A    between atoms: _123  and  _124
REMARK   49  A    between atoms: _129  and  _130
REMARK   50  A    between atoms: _132  and  _134
REMARK   51  A    between atoms: _134  and  _135
REMARK   52  A    between atoms: _134  and  _137
REMARK   53  A    between atoms: _137  and  _138
REMARK   54  A    between atoms: _138  and  _139
REMARK   55  A    between atoms: _141  and  _143
REMARK   56  A    between atoms: _143  and  _144
REMARK   57  A    between atoms: _143  and  _146
REMARK   58  A    between atoms: _146  and  _147
REMARK   59  A    between atoms: _147  and  _148
REMARK   60  A    between atoms: _151  and  _153
REMARK   61  A    between atoms: _153  and  _154
REMARK   62  A    between atoms: _156  and  _158
REMARK   63  A    between atoms: _158  and  _159
REMARK   64  A    between atoms: _158  and  _161
REMARK   65  A    between atoms: _161  and  _162
REMARK   66  A    between atoms: _162  and  _163
REMARK   67  A    between atoms: _166  and  _168
REMARK   68  A    between atoms: _168  and  _169
REMARK   69  A    between atoms: _168  and  _171
REMARK   70  A    between atoms: _171  and  _172
REMARK   71  A    between atoms: _177  and  _178
REMARK   72  A    between atoms: _180  and  _182
REMARK   73  A    between atoms: _182  and  _183
REMARK   74  A    between atoms: _182  and  _185
REMARK   75  A    between atoms: _185  and  _186
REMARK   76  A    between atoms: _196  and  _198
REMARK   77  A    between atoms: _198  and  _199
REMARK   78  A    between atoms: _198  and  _201
REMARK   79  A    between atoms: _201  and  _202
REMARK   80  A    between atoms: _202  and  _203
REMARK   81  A    between atoms: _203  and  _204
REMARK   82  A    between atoms: _213  and  _215
REMARK   83  A    between atoms: _215  and  _216
REMARK   84  A    between atoms: _215  and  _218
REMARK   85  A    between atoms: _218  and  _219
REMARK   86  A    between atoms: _219  and  _220
REMARK   87  A    between atoms: _223  and  _225
REMARK   88  A    between atoms: _225  and  _226
REMARK   89  A    between atoms: _225  and  _228
REMARK   90  A    between atoms: _228  and  _229
REMARK   91  A    between atoms: _229  and  _230
REMARK   92  A    between atoms: _235  and  _237
REMARK   93  A    between atoms: _237  and  _238
REMARK   94  A    between atoms: _237  and  _240
REMARK   95  A    between atoms: _240  and  _241
REMARK   96  A    between atoms: _241  and  _242
REMARK   97  A    between atoms: _242  and  _243
REMARK   98  A    between atoms: _243  and  _244
REMARK   99  A    between atoms: _248  and  _250
REMARK  100  A    between atoms: _250  and  _251
REMARK  101  A    between atoms: _254  and  _256
REMARK  102  A    between atoms: _256  and  _257
REMARK  103  A    between atoms: _259  and  _261
REMARK  104  A    between atoms: _261  and  _262
REMARK  105  A    between atoms: _261  and  _264
REMARK  106  A    between atoms: _264  and  _265
REMARK  107  A    between atoms: _270  and  _272
REMARK  108  A    between atoms: _272  and  _273
REMARK  109  A    between atoms: _272  and  _275
REMARK  110  A    between atoms: _275  and  _276
REMARK  111  A    between atoms: _276  and  _277
REMARK  112  A    between atoms: _280  and  _282
REMARK  113  A    between atoms: _282  and  _283
REMARK  114  A    between atoms: _282  and  _285
REMARK  115  A    between atoms: _285  and  _286
REMARK  116  A    between atoms: _288  and  _290
REMARK  117  A    between atoms: _290  and  _291
REMARK  118  A    between atoms: _290  and  _293
REMARK  119  A    between atoms: _293  and  _294
REMARK  120  A    between atoms: _300  and  _302
REMARK  121  A    between atoms: _302  and  _303
REMARK  122  A    between atoms: _302  and  _305
REMARK  123  A    between atoms: _308  and  _310
REMARK  124  A    between atoms: _310  and  _311
REMARK  125  A    between atoms: _310  and  _313
REMARK  126  A    between atoms: _313  and  _314
REMARK  127  A    between atoms: _317  and  _319
REMARK  128  A    between atoms: _319  and  _320
REMARK  129  A    between atoms: _319  and  _322
REMARK  130  A    between atoms: _322  and  _323
REMARK  131  A    between atoms: _326  and  _328
REMARK  132  A    between atoms: _328  and  _329
REMARK  133  A    between atoms: _328  and  _331
REMARK  134  A    between atoms: _331  and  _332
REMARK  135  A    between atoms: _335  and  _337
REMARK  136  A    between atoms: _337  and  _338
REMARK  137  A    between atoms: _337  and  _340
REMARK  138  A    between atoms: _340  and  _341
REMARK  139  A    between atoms: _344  and  _346
REMARK  140  A    between atoms: _346  and  _347
REMARK  141  A    between atoms: _346  and  _349
REMARK  142  A    between atoms: _349  and  _350
REMARK  143  A    between atoms: _355  and  _356
REMARK  144  A    between atoms: _358  and  _360
REMARK  145  A    between atoms: _360  and  _361
REMARK  146  A    between atoms: _360  and  _363
REMARK  147  A    between atoms: _363  and  _364
REMARK  148  A    between atoms: _369  and  _370
REMARK  149  A    between atoms: _372  and  _374
REMARK  150  A    between atoms: _374  and  _375
REMARK  151  A    between atoms: _374  and  _377
REMARK  152  A    between atoms: _377  and  _378
REMARK  153  A    between atoms: _381  and  _383
REMARK  154  A    between atoms: _383  and  _384
REMARK  155  A    between atoms: _383  and  _386
REMARK  156  A    between atoms: _386  and  _387
REMARK  157  A    between atoms: _387  and  _388
REMARK  158  A    between atoms: _393  and  _395
REMARK  159  A    between atoms: _395  and  _396
REMARK  160  A    between atoms: _395  and  _398
REMARK  161  A    between atoms: _401  and  _403
REMARK  162  A    between atoms: _403  and  _404
REMARK  163  A    between atoms: _403  and  _406
REMARK  164  A    between atoms: _406  and  _407
REMARK  165  A    between atoms: _410  and  _412
REMARK  166  A    between atoms: _412  and  _413
REMARK  167  A    between atoms: _412  and  _415
REMARK  168  A    between atoms: _415  and  _416
REMARK  169  A    between atoms: _418  and  _420
REMARK  170  A    between atoms: _420  and  _421
REMARK  171  A    between atoms: _423  and  _425
REMARK  172  A    between atoms: _425  and  _426
REMARK  173  A    between atoms: _425  and  _428
REMARK  174  A    between atoms: _428  and  _429
REMARK  175  A    between atoms: _434  and  _435
REMARK  176  A    between atoms: _437  and  _439
REMARK  177  A    between atoms: _439  and  _440
REMARK  178  A    between atoms: _439  and  _442
REMARK  179  A    between atoms: _442  and  _443
REMARK  180  A    between atoms: _443  and  _444
REMARK  181  A    between atoms: _449  and  _451
REMARK  182  A    between atoms: _451  and  _452
REMARK  183  A    between atoms: _451  and  _454
REMARK  184  A    between atoms: _454  and  _455
REMARK  185  A    between atoms: _455  and  _456
REMARK  186  A    between atoms: _461  and  _463
REMARK  187  A    between atoms: _463  and  _464
REMARK  188  A    between atoms: _463  and  _466
REMARK  189  A    between atoms: _466  and  _467
REMARK  190  A    between atoms: _472  and  _473
REMARK  191  A    between atoms: _475  and  _477
REMARK  192  A    between atoms: _477  and  _478
REMARK  193  A    between atoms: _481  and  _483
REMARK  194  A    between atoms: _483  and  _484
REMARK  195  A    between atoms: _483  and  _486
REMARK  196  A    between atoms: _486  and  _487
REMARK  197  A    between atoms: _492  and  _493
REMARK  198  A    between atoms: _495  and  _497
REMARK  199  A    between atoms: _497  and  _498
REMARK  200  A    between atoms: _497  and  _500
REMARK  201  A    between atoms: _500  and  _501
REMARK  202  A    between atoms: _506  and  _507
REMARK  203  A    between atoms: _509  and  _511
REMARK  204  A    between atoms: _511  and  _512
REMARK  205  A    between atoms: _511  and  _514
REMARK  206  A    between atoms: _514  and  _515
REMARK  207  A    between atoms: _518  and  _520
REMARK  208  A    between atoms: _520  and  _521
REMARK  209  A    between atoms: _520  and  _523
REMARK  210  A    between atoms: _523  and  _524
REMARK  211  A    between atoms: _534  and  _536
REMARK  212  A    between atoms: _536  and  _537
REMARK  213  A    between atoms: _540  and  _542
REMARK  214  A    between atoms: _542  and  _543
REMARK  215  A    between atoms: _546  and  _548
REMARK  216  A    between atoms: _548  and  _549
REMARK  217  A    between atoms: _548  and  _551
REMARK  218  A    between atoms: _551  and  _552
REMARK  219  A    between atoms: _555  and  _557
REMARK  220  A    between atoms: _557  and  _558
REMARK  221  A    between atoms: _557  and  _560
REMARK  222  A    between atoms: _560  and  _561
REMARK  223  A    between atoms: _564  and  _566
REMARK  224  A    between atoms: _566  and  _567
REMARK  225  A    between atoms: _566  and  _569
REMARK  226  A    between atoms: _569  and  _570
REMARK  227  A    between atoms: _573  and  _575
REMARK  228  A    between atoms: _575  and  _576
REMARK  229  A    between atoms: _575  and  _578
REMARK  230  A    between atoms: _578  and  _579
REMARK  231  A    between atoms: _579  and  _580
REMARK  232  A    between atoms: _580  and  _581
REMARK  233  A    between atoms: _581  and  _582
REMARK  234  A    between atoms: _586  and  _588
REMARK  235  A    between atoms: _588  and  _589
REMARK  236  A    between atoms: _588  and  _591
REMARK  237  A    between atoms: _591  and  _592
REMARK  238  A    between atoms: _597  and  _599
REMARK  239  A    between atoms: _599  and  _600
REMARK  240  A    between atoms: _599  and  _602
REMARK  241  A    between atoms: _602  and  _603
REMARK  242  A    between atoms: _603  and  _604
REMARK  243  A    between atoms: _604  and  _605
REMARK  244  A    between atoms: _605  and  _606
REMARK  245  A    between atoms: _610  and  _612
REMARK  246  A    between atoms: _612  and  _613
REMARK  247  A    between atoms: _612  and  _615
REMARK  248  A    between atoms: _615  and  _616
REMARK  249  A    between atoms: _626  and  _628
REMARK  250  A    between atoms: _628  and  _629
REMARK  251  A    between atoms: _628  and  _631
REMARK  252  A    between atoms: _631  and  _632
REMARK  253  A    between atoms: _632  and  _633
REMARK  254  A    between atoms: _636  and  _638
REMARK  255  A    between atoms: _638  and  _639
REMARK  256  A    between atoms: _642  and  _644
REMARK  257  A    between atoms: _644  and  _645
REMARK  258  A    between atoms: _647  and  _649
REMARK  259  A    between atoms: _649  and  _650
REMARK  260  A    between atoms: _649  and  _652
REMARK  261  A    between atoms: _652  and  _653
REMARK  262  A    between atoms: _653  and  _654
REMARK  263  A    between atoms: _657  and  _659
REMARK  264  A    between atoms: _659  and  _660
REMARK  265  A    between atoms: _663  and  _665
REMARK  266  A    between atoms: _665  and  _666
REMARK  267  A    between atoms: _665  and  _668
REMARK  268  A    between atoms: _668  and  _669
REMARK  269  A    between atoms: _669  and  _670
REMARK  270  A    between atoms: _673  and  _675
REMARK  271  A    between atoms: _675  and  _676
REMARK  272  A    between atoms: _675  and  _678
REMARK  273  A    between atoms: _678  and  _679
REMARK  274  A    between atoms: _679  and  _680
REMARK  275  A    between atoms: _680  and  _681
REMARK  276  A    between atoms: _690  and  _692
REMARK  277  A    between atoms: _692  and  _693
REMARK  278  A    between atoms: _692  and  _695
REMARK  279  A    between atoms: _695  and  _696
REMARK  280  A    between atoms: _699  and  _701
REMARK  281  A    between atoms: _701  and  _702
REMARK  282  A    between atoms: _701  and  _704
REMARK  283  A    between atoms: _704  and  _705
REMARK  284  A    between atoms: _705  and  _706
REMARK  285  A    between atoms: _706  and  _707
REMARK  286  A    between atoms: _716  and  _718
REMARK  287  A    between atoms: _718  and  _719
REMARK  288  A    between atoms: _722  and  _724
REMARK  289  A    between atoms: _724  and  _725
REMARK  290  A    between atoms: _724  and  _727
REMARK  291  A    between atoms: _727  and  _728
REMARK  292  A    between atoms: _733  and  _734
REMARK  293  A    between atoms: _736  and  _738
REMARK  294  A    between atoms: _738  and  _739
REMARK  295  A    between atoms: _738  and  _741
REMARK  296  A    between atoms: _741  and  _742
REMARK  297  A    between atoms: _745  and  _747
REMARK  298  A    between atoms: _747  and  _748
REMARK  299  A    between atoms: _747  and  _750
REMARK  300  A    between atoms: _750  and  _751
REMARK  301  A    between atoms: _754  and  _756
REMARK  302  A    between atoms: _756  and  _757
REMARK  303  A    between atoms: _756  and  _759
REMARK  304  A    between atoms: _761  and  _763
REMARK  305  A    between atoms: _763  and  _764
REMARK  306  A    between atoms: _763  and  _766
REMARK  307  A    between atoms: _769  and  _771
REMARK  308  A    between atoms: _771  and  _772
REMARK  309  A    between atoms: _771  and  _774
REMARK  310  A    between atoms: _774  and  _775
REMARK  311  A    between atoms: _775  and  _776
REMARK  312  A    between atoms: _779  and  _781
REMARK  313  A    between atoms: _781  and  _782
REMARK  314  A    between atoms: _781  and  _784
REMARK  315  A    between atoms: _784  and  _785
REMARK  316  A    between atoms: _795  and  _797
REMARK  317  A    between atoms: _797  and  _798
REMARK  318  A    between atoms: _797  and  _800
REMARK  319  A    between atoms: _800  and  _801
REMARK  320  A    between atoms: _804  and  _806
REMARK  321  A    between atoms: _806  and  _807
REMARK  322  A    between atoms: _806  and  _809
REMARK  323  A    between atoms: _809  and  _810
REMARK  324  A    between atoms: _810  and  _811
REMARK  325  A    between atoms: _811  and  _812
REMARK  326  A    between atoms: _821  and  _823
REMARK  327  A    between atoms: _823  and  _824
REMARK  328  A    between atoms: _823  and  _826
REMARK  329  A    between atoms: _826  and  _827
REMARK  330  A    between atoms: _832  and  _833
REMARK                            x       y       z     vdW  Elec       q    Type
REMARK                         _______ _______ _______ _____ _____    ______ ____
ROOT
ATOM      1  O   HOH     1      29.855  58.839 -14.929  0.00  0.00    +0.000 OA
ENDROOT
TORSDOF 0
REMARK  Name = ../refined-set-2016/1fzm/1fzm_pocket.pdb
REMARK  330 active torsions:
REMARK  status: ('A' for Active; 'I' for Inactive)
REMARK    1  A    between atoms: _1  and  _3
REMARK    2  A    between atoms: _3  and  _4
REMARK    3  A    between atoms: _3  and  _6
REMARK    4  A    between atoms: _6  and  _7
REMARK    5  A    between atoms: _10  and  _12
REMARK    6  A    between atoms: _12  and  _13
REMARK    7  A    between atoms: _12  and  _15
REMARK    8  A    between atoms: _15  and  _16
REMARK    9  A    between atoms: _16  and  _17
REMARK   10  A    between atoms: _17  and  _18
REMARK   11  A    between atoms: _27  and  _29
REMARK   12  A    between atoms: _29  and  _30
REMARK   13  A    between atoms: _29  and  _32
REMARK   14  A    between atoms: _32  and  _33
REMARK   15  A    between atoms: _38  and  _39
REMARK   16  A    between atoms: _41  and  _43
REMARK   17  A    between atoms: _43  and  _44
REMARK   18  A    between atoms: _43  and  _46
REMARK   19  A    between atoms: _46  and  _47
REMARK   20  A    between atoms: _53  and  _55
REMARK   21  A    between atoms: _55  and  _56
REMARK   22  A    between atoms: _55  and  _58
REMARK   23  A    between atoms: _61  and  _63
REMARK   24  A    between atoms: _63  and  _64
REMARK   25  A    between atoms: _63  and  _66
REMARK   26  A    between atoms: _66  and  _67
REMARK   27  A    between atoms: _70  and  _72
REMARK   28  A    between atoms: _72  and  _73
REMARK   29  A    between atoms: _72  and  _75
REMARK   30  A    between atoms: _75  and  _76
REMARK   31  A    between atoms: _82  and  _84
REMARK   32  A    between atoms: _84  and  _85
REMARK   33  A    between atoms: _84  and  _87
REMARK   34  A    between atoms: _87  and  _88
REMARK   35  A    between atoms: _90  and  _92
REMARK   36  A    between atoms: _92  and  _93
REMARK   37  A    between atoms: _92  and  _95
REMARK   38  A    between atoms: _98  and  _100
REMARK   39  A    between atoms: _100  and  _101
REMARK   40  A    between atoms: _100  and  _103
REMARK   41  A    between atoms: _103  and  _104
REMARK   42  A    between atoms: _110  and  _112
REMARK   43  A    between atoms: _112  and  _113
REMARK   44  A    between atoms: _112  and  _115
REMARK   45  A    between atoms: _118  and  _120
REMARK   46  A    between atoms: _120  and  _121
REMARK   47  A    between atoms: _120  and  _123
REMARK   48  A    between atoms: _123  and  _124
REMARK   49  A    between atoms: _129  and  _130
REMARK   50  A    between atoms: _132  and  _134
REMARK   51  A    between atoms: _134  and  _135
REMARK   52  A    between atoms: _134  and  _137
REMARK   53  A    between atoms: _137  and  _138
REMARK   54  A    between atoms: _138  and  _139
REMARK   55  A    between atoms: _141  and  _143
REMARK   56  A    between atoms: _143  and  _144
REMARK   57  A    between atoms: _143  and  _146
REMARK   58  A    between atoms: _146  and  _147
REMARK   59  A    between atoms: _147  and  _148
REMARK   60  A    between atoms: _151  and  _153
REMARK   61  A    between atoms: _153  and  _154
REMARK   62  A    between atoms: _156  and  _158
REMARK   63  A    between atoms: _158  and  _159
REMARK   64  A    between atoms: _158  and  _161
REMARK   65  A    between atoms: _161  and  _162
REMARK   66  A    between atoms: _162  and  _163
REMARK   67  A    between atoms: _166  and  _168
REMARK   68  A    between atoms: _168  and  _169
REMARK   69  A    between atoms: _168  and  _171
REMARK   70  A    between atoms: _171  and  _172
REMARK   71  A    between atoms: _177  and  _178
REMARK   72  A    between atoms: _180  and  _182
REMARK   73  A    between atoms: _182  and  _183
REMARK   74  A    between atoms: _182  and  _185
REMARK   75  A    between atoms: _185  and  _186
REMARK   76  A    between atoms: _196  and  _198
REMARK   77  A    between atoms: _198  and  _199
REMARK   78  A    between atoms: _198  and  _201
REMARK   79  A    between atoms: _201  and  _202
REMARK   80  A    between atoms: _202  and  _203
REMARK   81  A    between atoms: _203  and  _204
REMARK   82  A    between atoms: _213  and  _215
REMARK   83  A    between atoms: _215  and  _216
REMARK   84  A    between atoms: _215  and  _218
REMARK   85  A    between atoms: _218  and  _219
REMARK   86  A    between atoms: _219  and  _220
REMARK   87  A    between atoms: _223  and  _225
REMARK   88  A    between atoms: _225  and  _226
REMARK   89  A    between atoms: _225  and  _228
REMARK   90  A    between atoms: _228  and  _229
REMARK   91  A    between atoms: _229  and  _230
REMARK   92  A    between atoms: _235  and  _237
REMARK   93  A    between atoms: _237  and  _238
REMARK   94  A    between atoms: _237  and  _240
REMARK   95  A    between atoms: _240  and  _241
REMARK   96  A    between atoms: _241  and  _242
REMARK   97  A    between atoms: _242  and  _243
REMARK   98  A    between atoms: _243  and  _244
REMARK   99  A    between atoms: _248  and  _250
REMARK  100  A    between atoms: _250  and  _251
REMARK  101  A    between atoms: _254  and  _256
REMARK  102  A    between atoms: _256  and  _257
REMARK  103  A    between atoms: _259  and  _261
REMARK  104  A    between atoms: _261  and  _262
REMARK  105  A    between atoms: _261  and  _264
REMARK  106  A    between atoms: _264  and  _265
REMARK  107  A    between atoms: _270  and  _272
REMARK  108  A    between atoms: _272  and  _273
REMARK  109  A    between atoms: _272  and  _275
REMARK  110  A    between atoms: _275  and  _276
REMARK  111  A    between atoms: _276  and  _277
REMARK  112  A    between atoms: _280  and  _282
REMARK  113  A    between atoms: _282  and  _283
REMARK  114  A    between atoms: _282  and  _285
REMARK  115  A    between atoms: _285  and  _286
REMARK  116  A    between atoms: _288  and  _290
REMARK  117  A    between atoms: _290  and  _291
REMARK  118  A    between atoms: _290  and  _293
REMARK  119  A    between atoms: _293  and  _294
REMARK  120  A    between atoms: _300  and  _302
REMARK  121  A    between atoms: _302  and  _303
REMARK  122  A    between atoms: _302  and  _305
REMARK  123  A    between atoms: _308  and  _310
REMARK  124  A    between atoms: _310  and  _311
REMARK  125  A    between atoms: _310  and  _313
REMARK  126  A    between atoms: _313  and  _314
REMARK  127  A    between atoms: _317  and  _319
REMARK  128  A    between atoms: _319  and  _320
REMARK  129  A    between atoms: _319  and  _322
REMARK  130  A    between atoms: _322  and  _323
REMARK  131  A    between atoms: _326  and  _328
REMARK  132  A    between atoms: _328  and  _329
REMARK  133  A    between atoms: _328  and  _331
REMARK  134  A    between atoms: _331  and  _332
REMARK  135  A    between atoms: _335  and  _337
REMARK  136  A    between atoms: _337  and  _338
REMARK  137  A    between atoms: _337  and  _340
REMARK  138  A    between atoms: _340  and  _341
REMARK  139  A    between atoms: _344  and  _346
REMARK  140  A    between atoms: _346  and  _347
REMARK  141  A    between atoms: _346  and  _349
REMARK  142  A    between atoms: _349  and  _350
REMARK  143  A    between atoms: _355  and  _356
REMARK  144  A    between atoms: _358  and  _360
REMARK  145  A    between atoms: _360  and  _361
REMARK  146  A    between atoms: _360  and  _363
REMARK  147  A    between atoms: _363  and  _364
REMARK  148  A    between atoms: _369  and  _370
REMARK  149  A    between atoms: _372  and  _374
REMARK  150  A    between atoms: _374  and  _375
REMARK  151  A    between atoms: _374  and  _377
REMARK  152  A    between atoms: _377  and  _378
REMARK  153  A    between atoms: _381  and  _383
REMARK  154  A    between atoms: _383  and  _384
REMARK  155  A    between atoms: _383  and  _386
REMARK  156  A    between atoms: _386  and  _387
REMARK  157  A    between atoms: _387  and  _388
REMARK  158  A    between atoms: _393  and  _395
REMARK  159  A    between atoms: _395  and  _396
REMARK  160  A    between atoms: _395  and  _398
REMARK  161  A    between atoms: _401  and  _403
REMARK  162  A    between atoms: _403  and  _404
REMARK  163  A    between atoms: _403  and  _406
REMARK  164  A    between atoms: _406  and  _407
REMARK  165  A    between atoms: _410  and  _412
REMARK  166  A    between atoms: _412  and  _413
REMARK  167  A    between atoms: _412  and  _415
REMARK  168  A    between atoms: _415  and  _416
REMARK  169  A    between atoms: _418  and  _420
REMARK  170  A    between atoms: _420  and  _421
REMARK  171  A    between atoms: _423  and  _425
REMARK  172  A    between atoms: _425  and  _426
REMARK  173  A    between atoms: _425  and  _428
REMARK  174  A    between atoms: _428  and  _429
REMARK  175  A    between atoms: _434  and  _435
REMARK  176  A    between atoms: _437  and  _439
REMARK  177  A    between atoms: _439  and  _440
REMARK  178  A    between atoms: _439  and  _442
REMARK  179  A    between atoms: _442  and  _443
REMARK  180  A    between atoms: _443  and  _444
REMARK  181  A    between atoms: _449  and  _451
REMARK  182  A    between atoms: _451  and  _452
REMARK  183  A    between atoms: _451  and  _454
REMARK  184  A    between atoms: _454  and  _455
REMARK  185  A    between atoms: _455  and  _456
REMARK  186  A    between atoms: _461  and  _463
REMARK  187  A    between atoms: _463  and  _464
REMARK  188  A    between atoms: _463  and  _466
REMARK  189  A    between atoms: _466  and  _467
REMARK  190  A    between atoms: _472  and  _473
REMARK  191  A    between atoms: _475  and  _477
REMARK  192  A    between atoms: _477  and  _478
REMARK  193  A    between atoms: _481  and  _483
REMARK  194  A    between atoms: _483  and  _484
REMARK  195  A    between atoms: _483  and  _486
REMARK  196  A    between atoms: _486  and  _487
REMARK  197  A    between atoms: _492  and  _493
REMARK  198  A    between atoms: _495  and  _497
REMARK  199  A    between atoms: _497  and  _498
REMARK  200  A    between atoms: _497  and  _500
REMARK  201  A    between atoms: _500  and  _501
REMARK  202  A    between atoms: _506  and  _507
REMARK  203  A    between atoms: _509  and  _511
REMARK  204  A    between atoms: _511  and  _512
REMARK  205  A    between atoms: _511  and  _514
REMARK  206  A    between atoms: _514  and  _515
REMARK  207  A    between atoms: _518  and  _520
REMARK  208  A    between atoms: _520  and  _521
REMARK  209  A    between atoms: _520  and  _523
REMARK  210  A    between atoms: _523  and  _524
REMARK  211  A    between atoms: _534  and  _536
REMARK  212  A    between atoms: _536  and  _537
REMARK  213  A    between atoms: _540  and  _542
REMARK  214  A    between atoms: _542  and  _543
REMARK  215  A    between atoms: _546  and  _548
REMARK  216  A    between atoms: _548  and  _549
REMARK  217  A    between atoms: _548  and  _551
REMARK  218  A    between atoms: _551  and  _552
REMARK  219  A    between atoms: _555  and  _557
REMARK  220  A    between atoms: _557  and  _558
REMARK  221  A    between atoms: _557  and  _560
REMARK  222  A    between atoms: _560  and  _561
REMARK  223  A    between atoms: _564  and  _566
REMARK  224  A    between atoms: _566  and  _567
REMARK  225  A    between atoms: _566  and  _569
REMARK  226  A    between atoms: _569  and  _570
REMARK  227  A    between atoms: _573  and  _575
REMARK  228  A    between atoms: _575  and  _576
REMARK  229  A    between atoms: _575  and  _578
REMARK  230  A    between atoms: _578  and  _579
REMARK  231  A    between atoms: _579  and  _580
REMARK  232  A    between atoms: _580  and  _581
REMARK  233  A    between atoms: _581  and  _582
REMARK  234  A    between atoms: _586  and  _588
REMARK  235  A    between atoms: _588  and  _589
REMARK  236  A    between atoms: _588  and  _591
REMARK  237  A    between atoms: _591  and  _592
REMARK  238  A    between atoms: _597  and  _599
REMARK  239  A    between atoms: _599  and  _600
REMARK  240  A    between atoms: _599  and  _602
REMARK  241  A    between atoms: _602  and  _603
REMARK  242  A    between atoms: _603  and  _604
REMARK  243  A    between atoms: _604  and  _605
REMARK  244  A    between atoms: _605  and  _606
REMARK  245  A    between atoms: _610  and  _612
REMARK  246  A    between atoms: _612  and  _613
REMARK  247  A    between atoms: _612  and  _615
REMARK  248  A    between atoms: _615  and  _616
REMARK  249  A    between atoms: _626  and  _628
REMARK  250  A    between atoms: _628  and  _629
REMARK  251  A    between atoms: _628  and  _631
REMARK  252  A    between atoms: _631  and  _632
REMARK  253  A    between atoms: _632  and  _633
REMARK  254  A    between atoms: _636  and  _638
REMARK  255  A    between atoms: _638  and  _639
REMARK  256  A    between atoms: _642  and  _644
REMARK  257  A    between atoms: _644  and  _645
REMARK  258  A    between atoms: _647  and  _649
REMARK  259  A    between atoms: _649  and  _650
REMARK  260  A    between atoms: _649  and  _652
REMARK  261  A    between atoms: _652  and  _653
REMARK  262  A    between atoms: _653  and  _654
REMARK  263  A    between atoms: _657  and  _659
REMARK  264  A    between atoms: _659  and  _660
REMARK  265  A    between atoms: _663  and  _665
REMARK  266  A    between atoms: _665  and  _666
REMARK  267  A    between atoms: _665  and  _668
REMARK  268  A    between atoms: _668  and  _669
REMARK  269  A    between atoms: _669  and  _670
REMARK  270  A    between atoms: _673  and  _675
REMARK  271  A    between atoms: _675  and  _676
REMARK  272  A    between atoms: _675  and  _678
REMARK  273  A    between atoms: _678  and  _679
REMARK  274  A    between atoms: _679  and  _680
REMARK  275  A    between atoms: _680  and  _681
REMARK  276  A    between atoms: _690  and  _692
REMARK  277  A    between atoms: _692  and  _693
REMARK  278  A    between atoms: _692  and  _695
REMARK  279  A    between atoms: _695  and  _696
REMARK  280  A    between atoms: _699  and  _701
REMARK  281  A    between atoms: _701  and  _702
REMARK  282  A    between atoms: _701  and  _704
REMARK  283  A    between atoms: _704  and  _705
REMARK  284  A    between atoms: _705  and  _706
REMARK  285  A    between atoms: _706  and  _707
REMARK  286  A    between atoms: _716  and  _718
REMARK  287  A    between atoms: _718  and  _719
REMARK  288  A    between atoms: _722  and  _724
REMARK  289  A    between atoms: _724  and  _725
REMARK  290  A    between atoms: _724  and  _727
REMARK  291  A    between atoms: _727  and  _728
REMARK  292  A    between atoms: _733  and  _734
REMARK  293  A    between atoms: _736  and  _738
REMARK  294  A    between atoms: _738  and  _739
REMARK  295  A    between atoms: _738  and  _741
REMARK  296  A    between atoms: _741  and  _742
REMARK  297  A    between atoms: _745  and  _747
REMARK  298  A    between atoms: _747  and  _748
REMARK  299  A    between atoms: _747  and  _750
REMARK  300  A    between atoms: _750  and  _751
REMARK  301  A    between atoms: _754  and  _756
REMARK  302  A    between atoms: _756  and  _757
REMARK  303  A    between atoms: _756  and  _759
REMARK  304  A    between atoms: _761  and  _763
REMARK  305  A    between atoms: _763  and  _764
REMARK  306  A    between atoms: _763  and  _766
REMARK  307  A    between atoms: _769  and  _771
REMARK  308  A    between atoms: _771  and  _772
REMARK  309  A    between atoms: _771  and  _774
REMARK  310  A    between atoms: _774  and  _775
REMARK  311  A    between atoms: _775  and  _776
REMARK  312  A    between atoms: _779  and  _781
REMARK  313  A    between atoms: _781  and  _782
REMARK  314  A    between atoms: _781  and  _784
REMARK  315  A    between atoms: _784  and  _785
REMARK  316  A    between atoms: _795  and  _797
REMARK  317  A    between atoms: _797  and  _798
REMARK  318  A    between atoms: _797  and  _800
REMARK  319  A    between atoms: _800  and  _801
REMARK  320  A    between atoms: _804  and  _806
REMARK  321  A    between atoms: _806  and  _807
REMARK  322  A    between atoms: _806  and  _809
REMARK  323  A    between atoms: _809  and  _810
REMARK  324  A    between atoms: _810  and  _811
REMARK  325  A    between atoms: _811  and  _812
REMARK  326  A    between atoms: _821  and  _823
REMARK  327  A    between atoms: _823  and  _824
REMARK  328  A    between atoms: _823  and  _826
REMARK  329  A    between atoms: _826  and  _827
REMARK  330  A    between atoms: _832  and  _833
REMARK                            x       y       z     vdW  Elec       q    Type
REMARK                         _______ _______ _______ _____ _____    ______ ____
ROOT
ATOM      1  O   HOH     1      43.830  55.042   0.499  0.00  0.00    +0.000 OA
ENDROOT
TORSDOF 0
REMARK  Name = ../refined-set-2016/1fzm/1fzm_pocket.pdb
REMARK  330 active torsions:
REMARK  status: ('A' for Active; 'I' for Inactive)
REMARK    1  A    between atoms: _1  and  _3
REMARK    2  A    between atoms: _3  and  _4
REMARK    3  A    between atoms: _3  and  _6
REMARK    4  A    between atoms: _6  and  _7
REMARK    5  A    between atoms: _10  and  _12
REMARK    6  A    between atoms: _12  and  _13
REMARK    7  A    between atoms: _12  and  _15
REMARK    8  A    between atoms: _15  and  _16
REMARK    9  A    between atoms: _16  and  _17
REMARK   10  A    between atoms: _17  and  _18
REMARK   11  A    between atoms: _27  and  _29
REMARK   12  A    between atoms: _29  and  _30
REMARK   13  A    between atoms: _29  and  _32
REMARK   14  A    between atoms: _32  and  _33
REMARK   15  A    between atoms: _38  and  _39
REMARK   16  A    between atoms: _41  and  _43
REMARK   17  A    between atoms: _43  and  _44
REMARK   18  A    between atoms: _43  and  _46
REMARK   19  A    between atoms: _46  and  _47
REMARK   20  A    between atoms: _53  and  _55
REMARK   21  A    between atoms: _55  and  _56
REMARK   22  A    between atoms: _55  and  _58
REMARK   23  A    between atoms: _61  and  _63
REMARK   24  A    between atoms: _63  and  _64
REMARK   25  A    between atoms: _63  and  _66
REMARK   26  A    between atoms: _66  and  _67
REMARK   27  A    between atoms: _70  and  _72
REMARK   28  A    between atoms: _72  and  _73
REMARK   29  A    between atoms: _72  and  _75
REMARK   30  A    between atoms: _75  and  _76
REMARK   31  A    between atoms: _82  and  _84
REMARK   32  A    between atoms: _84  and  _85
REMARK   33  A    between atoms: _84  and  _87
REMARK   34  A    between atoms: _87  and  _88
REMARK   35  A    between atoms: _90  and  _92
REMARK   36  A    between atoms: _92  and  _93
REMARK   37  A    between atoms: _92  and  _95
REMARK   38  A    between atoms: _98  and  _100
REMARK   39  A    between atoms: _100  and  _101
REMARK   40  A    between atoms: _100  and  _103
REMARK   41  A    between atoms: _103  and  _104
REMARK   42  A    between atoms: _110  and  _112
REMARK   43  A    between atoms: _112  and  _113
REMARK   44  A    between atoms: _112  and  _115
REMARK   45  A    between atoms: _118  and  _120
REMARK   46  A    between atoms: _120  and  _121
REMARK   47  A    between atoms: _120  and  _123
REMARK   48  A    between atoms: _123  and  _124
REMARK   49  A    between atoms: _129  and  _130
REMARK   50  A    between atoms: _132  and  _134
REMARK   51  A    between atoms: _134  and  _135
REMARK   52  A    between atoms: _134  and  _137
REMARK   53  A    between atoms: _137  and  _138
REMARK   54  A    between atoms: _138  and  _139
REMARK   55  A    between atoms: _141  and  _143
REMARK   56  A    between atoms: _143  and  _144
REMARK   57  A    between atoms: _143  and  _146
REMARK   58  A    between atoms: _146  and  _147
REMARK   59  A    between atoms: _147  and  _148
REMARK   60  A    between atoms: _151  and  _153
REMARK   61  A    between atoms: _153  and  _154
REMARK   62  A    between atoms: _156  and  _158
REMARK   63  A    between atoms: _158  and  _159
REMARK   64  A    between atoms: _158  and  _161
REMARK   65  A    between atoms: _161  and  _162
REMARK   66  A    between atoms: _162  and  _163
REMARK   67  A    between atoms: _166  and  _168
REMARK   68  A    between atoms: _168  and  _169
REMARK   69  A    between atoms: _168  and  _171
REMARK   70  A    between atoms: _171  and  _172
REMARK   71  A    between atoms: _177  and  _178
REMARK   72  A    between atoms: _180  and  _182
REMARK   73  A    between atoms: _182  and  _183
REMARK   74  A    between atoms: _182  and  _185
REMARK   75  A    between atoms: _185  and  _186
REMARK   76  A    between atoms: _196  and  _198
REMARK   77  A    between atoms: _198  and  _199
REMARK   78  A    between atoms: _198  and  _201
REMARK   79  A    between atoms: _201  and  _202
REMARK   80  A    between atoms: _202  and  _203
REMARK   81  A    between atoms: _203  and  _204
REMARK   82  A    between atoms: _213  and  _215
REMARK   83  A    between atoms: _215  and  _216
REMARK   84  A    between atoms: _215  and  _218
REMARK   85  A    between atoms: _218  and  _219
REMARK   86  A    between atoms: _219  and  _220
REMARK   87  A    between atoms: _223  and  _225
REMARK   88  A    between atoms: _225  and  _226
REMARK   89  A    between atoms: _225  and  _228
REMARK   90  A    between atoms: _228  and  _229
REMARK   91  A    between atoms: _229  and  _230
REMARK   92  A    between atoms: _235  and  _237
REMARK   93  A    between atoms: _237  and  _238
REMARK   94  A    between atoms: _237  and  _240
REMARK   95  A    between atoms: _240  and  _241
REMARK   96  A    between atoms: _241  and  _242
REMARK   97  A    between atoms: _242  and  _243
REMARK   98  A    between atoms: _243  and  _244
REMARK   99  A    between atoms: _248  and  _250
REMARK  100  A    between atoms: _250  and  _251
REMARK  101  A    between atoms: _254  and  _256
REMARK  102  A    between atoms: _256  and  _257
REMARK  103  A    between atoms: _259  and  _261
REMARK  104  A    between atoms: _261  and  _262
REMARK  105  A    between atoms: _261  and  _264
REMARK  106  A    between atoms: _264  and  _265
REMARK  107  A    between atoms: _270  and  _272
REMARK  108  A    between atoms: _272  and  _273
REMARK  109  A    between atoms: _272  and  _275
REMARK  110  A    between atoms: _275  and  _276
REMARK  111  A    between atoms: _276  and  _277
REMARK  112  A    between atoms: _280  and  _282
REMARK  113  A    between atoms: _282  and  _283
REMARK  114  A    between atoms: _282  and  _285
REMARK  115  A    between atoms: _285  and  _286
REMARK  116  A    between atoms: _288  and  _290
REMARK  117  A    between atoms: _290  and  _291
REMARK  118  A    between atoms: _290  and  _293
REMARK  119  A    between atoms: _293  and  _294
REMARK  120  A    between atoms: _300  and  _302
REMARK  121  A    between atoms: _302  and  _303
REMARK  122  A    between atoms: _302  and  _305
REMARK  123  A    between atoms: _308  and  _310
REMARK  124  A    between atoms: _310  and  _311
REMARK  125  A    between atoms: _310  and  _313
REMARK  126  A    between atoms: _313  and  _314
REMARK  127  A    between atoms: _317  and  _319
REMARK  128  A    between atoms: _319  and  _320
REMARK  129  A    between atoms: _319  and  _322
REMARK  130  A    between atoms: _322  and  _323
REMARK  131  A    between atoms: _326  and  _328
REMARK  132  A    between atoms: _328  and  _329
REMARK  133  A    between atoms: _328  and  _331
REMARK  134  A    between atoms: _331  and  _332
REMARK  135  A    between atoms: _335  and  _337
REMARK  136  A    between atoms: _337  and  _338
REMARK  137  A    between atoms: _337  and  _340
REMARK  138  A    between atoms: _340  and  _341
REMARK  139  A    between atoms: _344  and  _346
REMARK  140  A    between atoms: _346  and  _347
REMARK  141  A    between atoms: _346  and  _349
REMARK  142  A    between atoms: _349  and  _350
REMARK  143  A    between atoms: _355  and  _356
REMARK  144  A    between atoms: _358  and  _360
REMARK  145  A    between atoms: _360  and  _361
REMARK  146  A    between atoms: _360  and  _363
REMARK  147  A    between atoms: _363  and  _364
REMARK  148  A    between atoms: _369  and  _370
REMARK  149  A    between atoms: _372  and  _374
REMARK  150  A    between atoms: _374  and  _375
REMARK  151  A    between atoms: _374  and  _377
REMARK  152  A    between atoms: _377  and  _378
REMARK  153  A    between atoms: _381  and  _383
REMARK  154  A    between atoms: _383  and  _384
REMARK  155  A    between atoms: _383  and  _386
REMARK  156  A    between atoms: _386  and  _387
REMARK  157  A    between atoms: _387  and  _388
REMARK  158  A    between atoms: _393  and  _395
REMARK  159  A    between atoms: _395  and  _396
REMARK  160  A    between atoms: _395  and  _398
REMARK  161  A    between atoms: _401  and  _403
REMARK  162  A    between atoms: _403  and  _404
REMARK  163  A    between atoms: _403  and  _406
REMARK  164  A    between atoms: _406  and  _407
REMARK  165  A    between atoms: _410  and  _412
REMARK  166  A    between atoms: _412  and  _413
REMARK  167  A    between atoms: _412  and  _415
REMARK  168  A    between atoms: _415  and  _416
REMARK  169  A    between atoms: _418  and  _420
REMARK  170  A    between atoms: _420  and  _421
REMARK  171  A    between atoms: _423  and  _425
REMARK  172  A    between atoms: _425  and  _426
REMARK  173  A    between atoms: _425  and  _428
REMARK  174  A    between atoms: _428  and  _429
REMARK  175  A    between atoms: _434  and  _435
REMARK  176  A    between atoms: _437  and  _439
REMARK  177  A    between atoms: _439  and  _440
REMARK  178  A    between atoms: _439  and  _442
REMARK  179  A    between atoms: _442  and  _443
REMARK  180  A    between atoms: _443  and  _444
REMARK  181  A    between atoms: _449  and  _451
REMARK  182  A    between atoms: _451  and  _452
REMARK  183  A    between atoms: _451  and  _454
REMARK  184  A    between atoms: _454  and  _455
REMARK  185  A    between atoms: _455  and  _456
REMARK  186  A    between atoms: _461  and  _463
REMARK  187  A    between atoms: _463  and  _464
REMARK  188  A    between atoms: _463  and  _466
REMARK  189  A    between atoms: _466  and  _467
REMARK  190  A    between atoms: _472  and  _473
REMARK  191  A    between atoms: _475  and  _477
REMARK  192  A    between atoms: _477  and  _478
REMARK  193  A    between atoms: _481  and  _483
REMARK  194  A    between atoms: _483  and  _484
REMARK  195  A    between atoms: _483  and  _486
REMARK  196  A    between atoms: _486  and  _487
REMARK  197  A    between atoms: _492  and  _493
REMARK  198  A    between atoms: _495  and  _497
REMARK  199  A    between atoms: _497  and  _498
REMARK  200  A    between atoms: _497  and  _500
REMARK  201  A    between atoms: _500  and  _501
REMARK  202  A    between atoms: _506  and  _507
REMARK  203  A    between atoms: _509  and  _511
REMARK  204  A    between atoms: _511  and  _512
REMARK  205  A    between atoms: _511  and  _514
REMARK  206  A    between atoms: _514  and  _515
REMARK  207  A    between atoms: _518  and  _520
REMARK  208  A    between atoms: _520  and  _521
REMARK  209  A    between atoms: _520  and  _523
REMARK  210  A    between atoms: _523  and  _524
REMARK  211  A    between atoms: _534  and  _536
REMARK  212  A    between atoms: _536  and  _537
REMARK  213  A    between atoms: _540  and  _542
REMARK  214  A    between atoms: _542  and  _543
REMARK  215  A    between atoms: _546  and  _548
REMARK  216  A    between atoms: _548  and  _549
REMARK  217  A    between atoms: _548  and  _551
REMARK  218  A    between atoms: _551  and  _552
REMARK  219  A    between atoms: _555  and  _557
REMARK  220  A    between atoms: _557  and  _558
REMARK  221  A    between atoms: _557  and  _560
REMARK  222  A    between atoms: _560  and  _561
REMARK  223  A    between atoms: _564  and  _566
REMARK  224  A    between atoms: _566  and  _567
REMARK  225  A    between atoms: _566  and  _569
REMARK  226  A    between atoms: _569  and  _570
REMARK  227  A    between atoms: _573  and  _575
REMARK  228  A    between atoms: _575  and  _576
REMARK  229  A    between atoms: _575  and  _578
REMARK  230  A    between atoms: _578  and  _579
REMARK  231  A    between atoms: _579  and  _580
REMARK  232  A    between atoms: _580  and  _581
REMARK  233  A    between atoms: _581  and  _582
REMARK  234  A    between atoms: _586  and  _588
REMARK  235  A    between atoms: _588  and  _589
REMARK  236  A    between atoms: _588  and  _591
REMARK  237  A    between atoms: _591  and  _592
REMARK  238  A    between atoms: _597  and  _599
REMARK  239  A    between atoms: _599  and  _600
REMARK  240  A    between atoms: _599  and  _602
REMARK  241  A    between atoms: _602  and  _603
REMARK  242  A    between atoms: _603  and  _604
REMARK  243  A    between atoms: _604  and  _605
REMARK  244  A    between atoms: _605  and  _606
REMARK  245  A    between atoms: _610  and  _612
REMARK  246  A    between atoms: _612  and  _613
REMARK  247  A    between atoms: _612  and  _615
REMARK  248  A    between atoms: _615  and  _616
REMARK  249  A    between atoms: _626  and  _628
REMARK  250  A    between atoms: _628  and  _629
REMARK  251  A    between atoms: _628  and  _631
REMARK  252  A    between atoms: _631  and  _632
REMARK  253  A    between atoms: _632  and  _633
REMARK  254  A    between atoms: _636  and  _638
REMARK  255  A    between atoms: _638  and  _639
REMARK  256  A    between atoms: _642  and  _644
REMARK  257  A    between atoms: _644  and  _645
REMARK  258  A    between atoms: _647  and  _649
REMARK  259  A    between atoms: _649  and  _650
REMARK  260  A    between atoms: _649  and  _652
REMARK  261  A    between atoms: _652  and  _653
REMARK  262  A    between atoms: _653  and  _654
REMARK  263  A    between atoms: _657  and  _659
REMARK  264  A    between atoms: _659  and  _660
REMARK  265  A    between atoms: _663  and  _665
REMARK  266  A    between atoms: _665  and  _666
REMARK  267  A    between atoms: _665  and  _668
REMARK  268  A    between atoms: _668  and  _669
REMARK  269  A    between atoms: _669  and  _670
REMARK  270  A    between atoms: _673  and  _675
REMARK  271  A    between atoms: _675  and  _676
REMARK  272  A    between atoms: _675  and  _678
REMARK  273  A    between atoms: _678  and  _679
REMARK  274  A    between atoms: _679  and  _680
REMARK  275  A    between atoms: _680  and  _681
REMARK  276  A    between atoms: _690  and  _692
REMARK  277  A    between atoms: _692  and  _693
REMARK  278  A    between atoms: _692  and  _695
REMARK  279  A    between atoms: _695  and  _696
REMARK  280  A    between atoms: _699  and  _701
REMARK  281  A    between atoms: _701  and  _702
REMARK  282  A    between atoms: _701  and  _704
REMARK  283  A    between atoms: _704  and  _705
REMARK  284  A    between atoms: _705  and  _706
REMARK  285  A    between atoms: _706  and  _707
REMARK  286  A    between atoms: _716  and  _718
REMARK  287  A    between atoms: _718  and  _719
REMARK  288  A    between atoms: _722  and  _724
REMARK  289  A    between atoms: _724  and  _725
REMARK  290  A    between atoms: _724  and  _727
REMARK  291  A    between atoms: _727  and  _728
REMARK  292  A    between atoms: _733  and  _734
REMARK  293  A    between atoms: _736  and  _738
REMARK  294  A    between atoms: _738  and  _739
REMARK  295  A    between atoms: _738  and  _741
REMARK  296  A    between atoms: _741  and  _742
REMARK  297  A    between atoms: _745  and  _747
REMARK  298  A    between atoms: _747  and  _748
REMARK  299  A    between atoms: _747  and  _750
REMARK  300  A    between atoms: _750  and  _751
REMARK  301  A    between atoms: _754  and  _756
REMARK  302  A    between atoms: _756  and  _757
REMARK  303  A    between atoms: _756  and  _759
REMARK  304  A    between atoms: _761  and  _763
REMARK  305  A    between atoms: _763  and  _764
REMARK  306  A    between atoms: _763  and  _766
REMARK  307  A    between atoms: _769  and  _771
REMARK  308  A    between atoms: _771  and  _772
REMARK  309  A    between atoms: _771  and  _774
REMARK  310  A    between atoms: _774  and  _775
REMARK  311  A    between atoms: _775  and  _776
REMARK  312  A    between atoms: _779  and  _781
REMARK  313  A    between atoms: _781  and  _782
REMARK  314  A    between atoms: _781  and  _784
REMARK  315  A    between atoms: _784  and  _785
REMARK  316  A    between atoms: _795  and  _797
REMARK  317  A    between atoms: _797  and  _798
REMARK  318  A    between atoms: _797  and  _800
REMARK  319  A    between atoms: _800  and  _801
REMARK  320  A    between atoms: _804  and  _806
REMARK  321  A    between atoms: _806  and  _807
REMARK  322  A    between atoms: _806  and  _809
REMARK  323  A    between atoms: _809  and  _810
REMARK  324  A    between atoms: _810  and  _811
REMARK  325  A    between atoms: _811  and  _812
REMARK  326  A    between atoms: _821  and  _823
REMARK  327  A    between atoms: _823  and  _824
REMARK  328  A    between atoms: _823  and  _826
REMARK  329  A    between atoms: _826  and  _827
REMARK  330  A    between atoms: _832  and  _833
REMARK                            x       y       z     vdW  Elec       q    Type
REMARK                         _______ _______ _______ _____ _____    ______ ____
ROOT
ATOM      1  O   HOH     1      48.341  55.328  -2.183  0.00  0.00    +0.000 OA
ENDROOT
TORSDOF 0
REMARK  Name = ../refined-set-2016/1fzm/1fzm_pocket.pdb
REMARK  330 active torsions:
REMARK  status: ('A' for Active; 'I' for Inactive)
REMARK    1  A    between atoms: _1  and  _3
REMARK    2  A    between atoms: _3  and  _4
REMARK    3  A    between atoms: _3  and  _6
REMARK    4  A    between atoms: _6  and  _7
REMARK    5  A    between atoms: _10  and  _12
REMARK    6  A    between atoms: _12  and  _13
REMARK    7  A    between atoms: _12  and  _15
REMARK    8  A    between atoms: _15  and  _16
REMARK    9  A    between atoms: _16  and  _17
REMARK   10  A    between atoms: _17  and  _18
REMARK   11  A    between atoms: _27  and  _29
REMARK   12  A    between atoms: _29  and  _30
REMARK   13  A    between atoms: _29  and  _32
REMARK   14  A    between atoms: _32  and  _33
REMARK   15  A    between atoms: _38  and  _39
REMARK   16  A    between atoms: _41  and  _43
REMARK   17  A    between atoms: _43  and  _44
REMARK   18  A    between atoms: _43  and  _46
REMARK   19  A    between atoms: _46  and  _47
REMARK   20  A    between atoms: _53  and  _55
REMARK   21  A    between atoms: _55  and  _56
REMARK   22  A    between atoms: _55  and  _58
REMARK   23  A    between atoms: _61  and  _63
REMARK   24  A    between atoms: _63  and  _64
REMARK   25  A    between atoms: _63  and  _66
REMARK   26  A    between atoms: _66  and  _67
REMARK   27  A    between atoms: _70  and  _72
REMARK   28  A    between atoms: _72  and  _73
REMARK   29  A    between atoms: _72  and  _75
REMARK   30  A    between atoms: _75  and  _76
REMARK   31  A    between atoms: _82  and  _84
REMARK   32  A    between atoms: _84  and  _85
REMARK   33  A    between atoms: _84  and  _87
REMARK   34  A    between atoms: _87  and  _88
REMARK   35  A    between atoms: _90  and  _92
REMARK   36  A    between atoms: _92  and  _93
REMARK   37  A    between atoms: _92  and  _95
REMARK   38  A    between atoms: _98  and  _100
REMARK   39  A    between atoms: _100  and  _101
REMARK   40  A    between atoms: _100  and  _103
REMARK   41  A    between atoms: _103  and  _104
REMARK   42  A    between atoms: _110  and  _112
REMARK   43  A    between atoms: _112  and  _113
REMARK   44  A    between atoms: _112  and  _115
REMARK   45  A    between atoms: _118  and  _120
REMARK   46  A    between atoms: _120  and  _121
REMARK   47  A    between atoms: _120  and  _123
REMARK   48  A    between atoms: _123  and  _124
REMARK   49  A    between atoms: _129  and  _130
REMARK   50  A    between atoms: _132  and  _134
REMARK   51  A    between atoms: _134  and  _135
REMARK   52  A    between atoms: _134  and  _137
REMARK   53  A    between atoms: _137  and  _138
REMARK   54  A    between atoms: _138  and  _139
REMARK   55  A    between atoms: _141  and  _143
REMARK   56  A    between atoms: _143  and  _144
REMARK   57  A    between atoms: _143  and  _146
REMARK   58  A    between atoms: _146  and  _147
REMARK   59  A    between atoms: _147  and  _148
REMARK   60  A    between atoms: _151  and  _153
REMARK   61  A    between atoms: _153  and  _154
REMARK   62  A    between atoms: _156  and  _158
REMARK   63  A    between atoms: _158  and  _159
REMARK   64  A    between atoms: _158  and  _161
REMARK   65  A    between atoms: _161  and  _162
REMARK   66  A    between atoms: _162  and  _163
REMARK   67  A    between atoms: _166  and  _168
REMARK   68  A    between atoms: _168  and  _169
REMARK   69  A    between atoms: _168  and  _171
REMARK   70  A    between atoms: _171  and  _172
REMARK   71  A    between atoms: _177  and  _178
REMARK   72  A    between atoms: _180  and  _182
REMARK   73  A    between atoms: _182  and  _183
REMARK   74  A    between atoms: _182  and  _185
REMARK   75  A    between atoms: _185  and  _186
REMARK   76  A    between atoms: _196  and  _198
REMARK   77  A    between atoms: _198  and  _199
REMARK   78  A    between atoms: _198  and  _201
REMARK   79  A    between atoms: _201  and  _202
REMARK   80  A    between atoms: _202  and  _203
REMARK   81  A    between atoms: _203  and  _204
REMARK   82  A    between atoms: _213  and  _215
REMARK   83  A    between atoms: _215  and  _216
REMARK   84  A    between atoms: _215  and  _218
REMARK   85  A    between atoms: _218  and  _219
REMARK   86  A    between atoms: _219  and  _220
REMARK   87  A    between atoms: _223  and  _225
REMARK   88  A    between atoms: _225  and  _226
REMARK   89  A    between atoms: _225  and  _228
REMARK   90  A    between atoms: _228  and  _229
REMARK   91  A    between atoms: _229  and  _230
REMARK   92  A    between atoms: _235  and  _237
REMARK   93  A    between atoms: _237  and  _238
REMARK   94  A    between atoms: _237  and  _240
REMARK   95  A    between atoms: _240  and  _241
REMARK   96  A    between atoms: _241  and  _242
REMARK   97  A    between atoms: _242  and  _243
REMARK   98  A    between atoms: _243  and  _244
REMARK   99  A    between atoms: _248  and  _250
REMARK  100  A    between atoms: _250  and  _251
REMARK  101  A    between atoms: _254  and  _256
REMARK  102  A    between atoms: _256  and  _257
REMARK  103  A    between atoms: _259  and  _261
REMARK  104  A    between atoms: _261  and  _262
REMARK  105  A    between atoms: _261  and  _264
REMARK  106  A    between atoms: _264  and  _265
REMARK  107  A    between atoms: _270  and  _272
REMARK  108  A    between atoms: _272  and  _273
REMARK  109  A    between atoms: _272  and  _275
REMARK  110  A    between atoms: _275  and  _276
REMARK  111  A    between atoms: _276  and  _277
REMARK  112  A    between atoms: _280  and  _282
REMARK  113  A    between atoms: _282  and  _283
REMARK  114  A    between atoms: _282  and  _285
REMARK  115  A    between atoms: _285  and  _286
REMARK  116  A    between atoms: _288  and  _290
REMARK  117  A    between atoms: _290  and  _291
REMARK  118  A    between atoms: _290  and  _293
REMARK  119  A    between atoms: _293  and  _294
REMARK  120  A    between atoms: _300  and  _302
REMARK  121  A    between atoms: _302  and  _303
REMARK  122  A    between atoms: _302  and  _305
REMARK  123  A    between atoms: _308  and  _310
REMARK  124  A    between atoms: _310  and  _311
REMARK  125  A    between atoms: _310  and  _313
REMARK  126  A    between atoms: _313  and  _314
REMARK  127  A    between atoms: _317  and  _319
REMARK  128  A    between atoms: _319  and  _320
REMARK  129  A    between atoms: _319  and  _322
REMARK  130  A    between atoms: _322  and  _323
REMARK  131  A    between atoms: _326  and  _328
REMARK  132  A    between atoms: _328  and  _329
REMARK  133  A    between atoms: _328  and  _331
REMARK  134  A    between atoms: _331  and  _332
REMARK  135  A    between atoms: _335  and  _337
REMARK  136  A    between atoms: _337  and  _338
REMARK  137  A    between atoms: _337  and  _340
REMARK  138  A    between atoms: _340  and  _341
REMARK  139  A    between atoms: _344  and  _346
REMARK  140  A    between atoms: _346  and  _347
REMARK  141  A    between atoms: _346  and  _349
REMARK  142  A    between atoms: _349  and  _350
REMARK  143  A    between atoms: _355  and  _356
REMARK  144  A    between atoms: _358  and  _360
REMARK  145  A    between atoms: _360  and  _361
REMARK  146  A    between atoms: _360  and  _363
REMARK  147  A    between atoms: _363  and  _364
REMARK  148  A    between atoms: _369  and  _370
REMARK  149  A    between atoms: _372  and  _374
REMARK  150  A    between atoms: _374  and  _375
REMARK  151  A    between atoms: _374  and  _377
REMARK  152  A    between atoms: _377  and  _378
REMARK  153  A    between atoms: _381  and  _383
REMARK  154  A    between atoms: _383  and  _384
REMARK  155  A    between atoms: _383  and  _386
REMARK  156  A    between atoms: _386  and  _387
REMARK  157  A    between atoms: _387  and  _388
REMARK  158  A    between atoms: _393  and  _395
REMARK  159  A    between atoms: _395  and  _396
REMARK  160  A    between atoms: _395  and  _398
REMARK  161  A    between atoms: _401  and  _403
REMARK  162  A    between atoms: _403  and  _404
REMARK  163  A    between atoms: _403  and  _406
REMARK  164  A    between atoms: _406  and  _407
REMARK  165  A    between atoms: _410  and  _412
REMARK  166  A    between atoms: _412  and  _413
REMARK  167  A    between atoms: _412  and  _415
REMARK  168  A    between atoms: _415  and  _416
REMARK  169  A    between atoms: _418  and  _420
REMARK  170  A    between atoms: _420  and  _421
REMARK  171  A    between atoms: _423  and  _425
REMARK  172  A    between atoms: _425  and  _426
REMARK  173  A    between atoms: _425  and  _428
REMARK  174  A    between atoms: _428  and  _429
REMARK  175  A    between atoms: _434  and  _435
REMARK  176  A    between atoms: _437  and  _439
REMARK  177  A    between atoms: _439  and  _440
REMARK  178  A    between atoms: _439  and  _442
REMARK  179  A    between atoms: _442  and  _443
REMARK  180  A    between atoms: _443  and  _444
REMARK  181  A    between atoms: _449  and  _451
REMARK  182  A    between atoms: _451  and  _452
REMARK  183  A    between atoms: _451  and  _454
REMARK  184  A    between atoms: _454  and  _455
REMARK  185  A    between atoms: _455  and  _456
REMARK  186  A    between atoms: _461  and  _463
REMARK  187  A    between atoms: _463  and  _464
REMARK  188  A    between atoms: _463  and  _466
REMARK  189  A    between atoms: _466  and  _467
REMARK  190  A    between atoms: _472  and  _473
REMARK  191  A    between atoms: _475  and  _477
REMARK  192  A    between atoms: _477  and  _478
REMARK  193  A    between atoms: _481  and  _483
REMARK  194  A    between atoms: _483  and  _484
REMARK  195  A    between atoms: _483  and  _486
REMARK  196  A    between atoms: _486  and  _487
REMARK  197  A    between atoms: _492  and  _493
REMARK  198  A    between atoms: _495  and  _497
REMARK  199  A    between atoms: _497  and  _498
REMARK  200  A    between atoms: _497  and  _500
REMARK  201  A    between atoms: _500  and  _501
REMARK  202  A    between atoms: _506  and  _507
REMARK  203  A    between atoms: _509  and  _511
REMARK  204  A    between atoms: _511  and  _512
REMARK  205  A    between atoms: _511  and  _514
REMARK  206  A    between atoms: _514  and  _515
REMARK  207  A    between atoms: _518  and  _520
REMARK  208  A    between atoms: _520  and  _521
REMARK  209  A    between atoms: _520  and  _523
REMARK  210  A    between atoms: _523  and  _524
REMARK  211  A    between atoms: _534  and  _536
REMARK  212  A    between atoms: _536  and  _537
REMARK  213  A    between atoms: _540  and  _542
REMARK  214  A    between atoms: _542  and  _543
REMARK  215  A    between atoms: _546  and  _548
REMARK  216  A    between atoms: _548  and  _549
REMARK  217  A    between atoms: _548  and  _551
REMARK  218  A    between atoms: _551  and  _552
REMARK  219  A    between atoms: _555  and  _557
REMARK  220  A    between atoms: _557  and  _558
REMARK  221  A    between atoms: _557  and  _560
REMARK  222  A    between atoms: _560  and  _561
REMARK  223  A    between atoms: _564  and  _566
REMARK  224  A    between atoms: _566  and  _567
REMARK  225  A    between atoms: _566  and  _569
REMARK  226  A    between atoms: _569  and  _570
REMARK  227  A    between atoms: _573  and  _575
REMARK  228  A    between atoms: _575  and  _576
REMARK  229  A    between atoms: _575  and  _578
REMARK  230  A    between atoms: _578  and  _579
REMARK  231  A    between atoms: _579  and  _580
REMARK  232  A    between atoms: _580  and  _581
REMARK  233  A    between atoms: _581  and  _582
REMARK  234  A    between atoms: _586  and  _588
REMARK  235  A    between atoms: _588  and  _589
REMARK  236  A    between atoms: _588  and  _591
REMARK  237  A    between atoms: _591  and  _592
REMARK  238  A    between atoms: _597  and  _599
REMARK  239  A    between atoms: _599  and  _600
REMARK  240  A    between atoms: _599  and  _602
REMARK  241  A    between atoms: _602  and  _603
REMARK  242  A    between atoms: _603  and  _604
REMARK  243  A    between atoms: _604  and  _605
REMARK  244  A    between atoms: _605  and  _606
REMARK  245  A    between atoms: _610  and  _612
REMARK  246  A    between atoms: _612  and  _613
REMARK  247  A    between atoms: _612  and  _615
REMARK  248  A    between atoms: _615  and  _616
REMARK  249  A    between atoms: _626  and  _628
REMARK  250  A    between atoms: _628  and  _629
REMARK  251  A    between atoms: _628  and  _631
REMARK  252  A    between atoms: _631  and  _632
REMARK  253  A    between atoms: _632  and  _633
REMARK  254  A    between atoms: _636  and  _638
REMARK  255  A    between atoms: _638  and  _639
REMARK  256  A    between atoms: _642  and  _644
REMARK  257  A    between atoms: _644  and  _645
REMARK  258  A    between atoms: _647  and  _649
REMARK  259  A    between atoms: _649  and  _650
REMARK  260  A    between atoms: _649  and  _652
REMARK  261  A    between atoms: _652  and  _653
REMARK  262  A    between atoms: _653  and  _654
REMARK  263  A    between atoms: _657  and  _659
REMARK  264  A    between atoms: _659  and  _660
REMARK  265  A    between atoms: _663  and  _665
REMARK  266  A    between atoms: _665  and  _666
REMARK  267  A    between atoms: _665  and  _668
REMARK  268  A    between atoms: _668  and  _669
REMARK  269  A    between atoms: _669  and  _670
REMARK  270  A    between atoms: _673  and  _675
REMARK  271  A    between atoms: _675  and  _676
REMARK  272  A    between atoms: _675  and  _678
REMARK  273  A    between atoms: _678  and  _679
REMARK  274  A    between atoms: _679  and  _680
REMARK  275  A    between atoms: _680  and  _681
REMARK  276  A    between atoms: _690  and  _692
REMARK  277  A    between atoms: _692  and  _693
REMARK  278  A    between atoms: _692  and  _695
REMARK  279  A    between atoms: _695  and  _696
REMARK  280  A    between atoms: _699  and  _701
REMARK  281  A    between atoms: _701  and  _702
REMARK  282  A    between atoms: _701  and  _704
REMARK  283  A    between atoms: _704  and  _705
REMARK  284  A    between atoms: _705  and  _706
REMARK  285  A    between atoms: _706  and  _707
REMARK  286  A    between atoms: _716  and  _718
REMARK  287  A    between atoms: _718  and  _719
REMARK  288  A    between atoms: _722  and  _724
REMARK  289  A    between atoms: _724  and  _725
REMARK  290  A    between atoms: _724  and  _727
REMARK  291  A    between atoms: _727  and  _728
REMARK  292  A    between atoms: _733  and  _734
REMARK  293  A    between atoms: _736  and  _738
REMARK  294  A    between atoms: _738  and  _739
REMARK  295  A    between atoms: _738  and  _741
REMARK  296  A    between atoms: _741  and  _742
REMARK  297  A    between atoms: _745  and  _747
REMARK  298  A    between atoms: _747  and  _748
REMARK  299  A    between atoms: _747  and  _750
REMARK  300  A    between atoms: _750  and  _751
REMARK  301  A    between atoms: _754  and  _756
REMARK  302  A    between atoms: _756  and  _757
REMARK  303  A    between atoms: _756  and  _759
REMARK  304  A    between atoms: _761  and  _763
REMARK  305  A    between atoms: _763  and  _764
REMARK  306  A    between atoms: _763  and  _766
REMARK  307  A    between atoms: _769  and  _771
REMARK  308  A    between atoms: _771  and  _772
REMARK  309  A    between atoms: _771  and  _774
REMARK  310  A    between atoms: _774  and  _775
REMARK  311  A    between atoms: _775  and  _776
REMARK  312  A    between atoms: _779  and  _781
REMARK  313  A    between atoms: _781  and  _782
REMARK  314  A    between atoms: _781  and  _784
REMARK  315  A    between atoms: _784  and  _785
REMARK  316  A    between atoms: _795  and  _797
REMARK  317  A    between atoms: _797  and  _798
REMARK  318  A    between atoms: _797  and  _800
REMARK  319  A    between atoms: _800  and  _801
REMARK  320  A    between atoms: _804  and  _806
REMARK  321  A    between atoms: _806  and  _807
REMARK  322  A    between atoms: _806  and  _809
REMARK  323  A    between atoms: _809  and  _810
REMARK  324  A    between atoms: _810  and  _811
REMARK  325  A    between atoms: _811  and  _812
REMARK  326  A    between atoms: _821  and  _823
REMARK  327  A    between atoms: _823  and  _824
REMARK  328  A    between atoms: _823  and  _826
REMARK  329  A    between atoms: _826  and  _827
REMARK  330  A    between atoms: _832  and  _833
REMARK                            x       y       z     vdW  Elec       q    Type
REMARK                         _______ _______ _______ _____ _____    ______ ____
ROOT
ATOM      1  O   HOH     1      50.944  67.630  -5.304  0.00  0.00    +0.000 OA
ENDROOT
TORSDOF 0
REMARK  Name = ../refined-set-2016/1fzm/1fzm_pocket.pdb
REMARK  330 active torsions:
REMARK  status: ('A' for Active; 'I' for Inactive)
REMARK    1  A    between atoms: _1  and  _3
REMARK    2  A    between atoms: _3  and  _4
REMARK    3  A    between atoms: _3  and  _6
REMARK    4  A    between atoms: _6  and  _7
REMARK    5  A    between atoms: _10  and  _12
REMARK    6  A    between atoms: _12  and  _13
REMARK    7  A    between atoms: _12  and  _15
REMARK    8  A    between atoms: _15  and  _16
REMARK    9  A    between atoms: _16  and  _17
REMARK   10  A    between atoms: _17  and  _18
REMARK   11  A    between atoms: _27  and  _29
REMARK   12  A    between atoms: _29  and  _30
REMARK   13  A    between atoms: _29  and  _32
REMARK   14  A    between atoms: _32  and  _33
REMARK   15  A    between atoms: _38  and  _39
REMARK   16  A    between atoms: _41  and  _43
REMARK   17  A    between atoms: _43  and  _44
REMARK   18  A    between atoms: _43  and  _46
REMARK   19  A    between atoms: _46  and  _47
REMARK   20  A    between atoms: _53  and  _55
REMARK   21  A    between atoms: _55  and  _56
REMARK   22  A    between atoms: _55  and  _58
REMARK   23  A    between atoms: _61  and  _63
REMARK   24  A    between atoms: _63  and  _64
REMARK   25  A    between atoms: _63  and  _66
REMARK   26  A    between atoms: _66  and  _67
REMARK   27  A    between atoms: _70  and  _72
REMARK   28  A    between atoms: _72  and  _73
REMARK   29  A    between atoms: _72  and  _75
REMARK   30  A    between atoms: _75  and  _76
REMARK   31  A    between atoms: _82  and  _84
REMARK   32  A    between atoms: _84  and  _85
REMARK   33  A    between atoms: _84  and  _87
REMARK   34  A    between atoms: _87  and  _88
REMARK   35  A    between atoms: _90  and  _92
REMARK   36  A    between atoms: _92  and  _93
REMARK   37  A    between atoms: _92  and  _95
REMARK   38  A    between atoms: _98  and  _100
REMARK   39  A    between atoms: _100  and  _101
REMARK   40  A    between atoms: _100  and  _103
REMARK   41  A    between atoms: _103  and  _104
REMARK   42  A    between atoms: _110  and  _112
REMARK   43  A    between atoms: _112  and  _113
REMARK   44  A    between atoms: _112  and  _115
REMARK   45  A    between atoms: _118  and  _120
REMARK   46  A    between atoms: _120  and  _121
REMARK   47  A    between atoms: _120  and  _123
REMARK   48  A    between atoms: _123  and  _124
REMARK   49  A    between atoms: _129  and  _130
REMARK   50  A    between atoms: _132  and  _134
REMARK   51  A    between atoms: _134  and  _135
REMARK   52  A    between atoms: _134  and  _137
REMARK   53  A    between atoms: _137  and  _138
REMARK   54  A    between atoms: _138  and  _139
REMARK   55  A    between atoms: _141  and  _143
REMARK   56  A    between atoms: _143  and  _144
REMARK   57  A    between atoms: _143  and  _146
REMARK   58  A    between atoms: _146  and  _147
REMARK   59  A    between atoms: _147  and  _148
REMARK   60  A    between atoms: _151  and  _153
REMARK   61  A    between atoms: _153  and  _154
REMARK   62  A    between atoms: _156  and  _158
REMARK   63  A    between atoms: _158  and  _159
REMARK   64  A    between atoms: _158  and  _161
REMARK   65  A    between atoms: _161  and  _162
REMARK   66  A    between atoms: _162  and  _163
REMARK   67  A    between atoms: _166  and  _168
REMARK   68  A    between atoms: _168  and  _169
REMARK   69  A    between atoms: _168  and  _171
REMARK   70  A    between atoms: _171  and  _172
REMARK   71  A    between atoms: _177  and  _178
REMARK   72  A    between atoms: _180  and  _182
REMARK   73  A    between atoms: _182  and  _183
REMARK   74  A    between atoms: _182  and  _185
REMARK   75  A    between atoms: _185  and  _186
REMARK   76  A    between atoms: _196  and  _198
REMARK   77  A    between atoms: _198  and  _199
REMARK   78  A    between atoms: _198  and  _201
REMARK   79  A    between atoms: _201  and  _202
REMARK   80  A    between atoms: _202  and  _203
REMARK   81  A    between atoms: _203  and  _204
REMARK   82  A    between atoms: _213  and  _215
REMARK   83  A    between atoms: _215  and  _216
REMARK   84  A    between atoms: _215  and  _218
REMARK   85  A    between atoms: _218  and  _219
REMARK   86  A    between atoms: _219  and  _220
REMARK   87  A    between atoms: _223  and  _225
REMARK   88  A    between atoms: _225  and  _226
REMARK   89  A    between atoms: _225  and  _228
REMARK   90  A    between atoms: _228  and  _229
REMARK   91  A    between atoms: _229  and  _230
REMARK   92  A    between atoms: _235  and  _237
REMARK   93  A    between atoms: _237  and  _238
REMARK   94  A    between atoms: _237  and  _240
REMARK   95  A    between atoms: _240  and  _241
REMARK   96  A    between atoms: _241  and  _242
REMARK   97  A    between atoms: _242  and  _243
REMARK   98  A    between atoms: _243  and  _244
REMARK   99  A    between atoms: _248  and  _250
REMARK  100  A    between atoms: _250  and  _251
REMARK  101  A    between atoms: _254  and  _256
REMARK  102  A    between atoms: _256  and  _257
REMARK  103  A    between atoms: _259  and  _261
REMARK  104  A    between atoms: _261  and  _262
REMARK  105  A    between atoms: _261  and  _264
REMARK  106  A    between atoms: _264  and  _265
REMARK  107  A    between atoms: _270  and  _272
REMARK  108  A    between atoms: _272  and  _273
REMARK  109  A    between atoms: _272  and  _275
REMARK  110  A    between atoms: _275  and  _276
REMARK  111  A    between atoms: _276  and  _277
REMARK  112  A    between atoms: _280  and  _282
REMARK  113  A    between atoms: _282  and  _283
REMARK  114  A    between atoms: _282  and  _285
REMARK  115  A    between atoms: _285  and  _286
REMARK  116  A    between atoms: _288  and  _290
REMARK  117  A    between atoms: _290  and  _291
REMARK  118  A    between atoms: _290  and  _293
REMARK  119  A    between atoms: _293  and  _294
REMARK  120  A    between atoms: _300  and  _302
REMARK  121  A    between atoms: _302  and  _303
REMARK  122  A    between atoms: _302  and  _305
REMARK  123  A    between atoms: _308  and  _310
REMARK  124  A    between atoms: _310  and  _311
REMARK  125  A    between atoms: _310  and  _313
REMARK  126  A    between atoms: _313  and  _314
REMARK  127  A    between atoms: _317  and  _319
REMARK  128  A    between atoms: _319  and  _320
REMARK  129  A    between atoms: _319  and  _322
REMARK  130  A    between atoms: _322  and  _323
REMARK  131  A    between atoms: _326  and  _328
REMARK  132  A    between atoms: _328  and  _329
REMARK  133  A    between atoms: _328  and  _331
REMARK  134  A    between atoms: _331  and  _332
REMARK  135  A    between atoms: _335  and  _337
REMARK  136  A    between atoms: _337  and  _338
REMARK  137  A    between atoms: _337  and  _340
REMARK  138  A    between atoms: _340  and  _341
REMARK  139  A    between atoms: _344  and  _346
REMARK  140  A    between atoms: _346  and  _347
REMARK  141  A    between atoms: _346  and  _349
REMARK  142  A    between atoms: _349  and  _350
REMARK  143  A    between atoms: _355  and  _356
REMARK  144  A    between atoms: _358  and  _360
REMARK  145  A    between atoms: _360  and  _361
REMARK  146  A    between atoms: _360  and  _363
REMARK  147  A    between atoms: _363  and  _364
REMARK  148  A    between atoms: _369  and  _370
REMARK  149  A    between atoms: _372  and  _374
REMARK  150  A    between atoms: _374  and  _375
REMARK  151  A    between atoms: _374  and  _377
REMARK  152  A    between atoms: _377  and  _378
REMARK  153  A    between atoms: _381  and  _383
REMARK  154  A    between atoms: _383  and  _384
REMARK  155  A    between atoms: _383  and  _386
REMARK  156  A    between atoms: _386  and  _387
REMARK  157  A    between atoms: _387  and  _388
REMARK  158  A    between atoms: _393  and  _395
REMARK  159  A    between atoms: _395  and  _396
REMARK  160  A    between atoms: _395  and  _398
REMARK  161  A    between atoms: _401  and  _403
REMARK  162  A    between atoms: _403  and  _404
REMARK  163  A    between atoms: _403  and  _406
REMARK  164  A    between atoms: _406  and  _407
REMARK  165  A    between atoms: _410  and  _412
REMARK  166  A    between atoms: _412  and  _413
REMARK  167  A    between atoms: _412  and  _415
REMARK  168  A    between atoms: _415  and  _416
REMARK  169  A    between atoms: _418  and  _420
REMARK  170  A    between atoms: _420  and  _421
REMARK  171  A    between atoms: _423  and  _425
REMARK  172  A    between atoms: _425  and  _426
REMARK  173  A    between atoms: _425  and  _428
REMARK  174  A    between atoms: _428  and  _429
REMARK  175  A    between atoms: _434  and  _435
REMARK  176  A    between atoms: _437  and  _439
REMARK  177  A    between atoms: _439  and  _440
REMARK  178  A    between atoms: _439  and  _442
REMARK  179  A    between atoms: _442  and  _443
REMARK  180  A    between atoms: _443  and  _444
REMARK  181  A    between atoms: _449  and  _451
REMARK  182  A    between atoms: _451  and  _452
REMARK  183  A    between atoms: _451  and  _454
REMARK  184  A    between atoms: _454  and  _455
REMARK  185  A    between atoms: _455  and  _456
REMARK  186  A    between atoms: _461  and  _463
REMARK  187  A    between atoms: _463  and  _464
REMARK  188  A    between atoms: _463  and  _466
REMARK  189  A    between atoms: _466  and  _467
REMARK  190  A    between atoms: _472  and  _473
REMARK  191  A    between atoms: _475  and  _477
REMARK  192  A    between atoms: _477  and  _478
REMARK  193  A    between atoms: _481  and  _483
REMARK  194  A    between atoms: _483  and  _484
REMARK  195  A    between atoms: _483  and  _486
REMARK  196  A    between atoms: _486  and  _487
REMARK  197  A    between atoms: _492  and  _493
REMARK  198  A    between atoms: _495  and  _497
REMARK  199  A    between atoms: _497  and  _498
REMARK  200  A    between atoms: _497  and  _500
REMARK  201  A    between atoms: _500  and  _501
REMARK  202  A    between atoms: _506  and  _507
REMARK  203  A    between atoms: _509  and  _511
REMARK  204  A    between atoms: _511  and  _512
REMARK  205  A    between atoms: _511  and  _514
REMARK  206  A    between atoms: _514  and  _515
REMARK  207  A    between atoms: _518  and  _520
REMARK  208  A    between atoms: _520  and  _521
REMARK  209  A    between atoms: _520  and  _523
REMARK  210  A    between atoms: _523  and  _524
REMARK  211  A    between atoms: _534  and  _536
REMARK  212  A    between atoms: _536  and  _537
REMARK  213  A    between atoms: _540  and  _542
REMARK  214  A    between atoms: _542  and  _543
REMARK  215  A    between atoms: _546  and  _548
REMARK  216  A    between atoms: _548  and  _549
REMARK  217  A    between atoms: _548  and  _551
REMARK  218  A    between atoms: _551  and  _552
REMARK  219  A    between atoms: _555  and  _557
REMARK  220  A    between atoms: _557  and  _558
REMARK  221  A    between atoms: _557  and  _560
REMARK  222  A    between atoms: _560  and  _561
REMARK  223  A    between atoms: _564  and  _566
REMARK  224  A    between atoms: _566  and  _567
REMARK  225  A    between atoms: _566  and  _569
REMARK  226  A    between atoms: _569  and  _570
REMARK  227  A    between atoms: _573  and  _575
REMARK  228  A    between atoms: _575  and  _576
REMARK  229  A    between atoms: _575  and  _578
REMARK  230  A    between atoms: _578  and  _579
REMARK  231  A    between atoms: _579  and  _580
REMARK  232  A    between atoms: _580  and  _581
REMARK  233  A    between atoms: _581  and  _582
REMARK  234  A    between atoms: _586  and  _588
REMARK  235  A    between atoms: _588  and  _589
REMARK  236  A    between atoms: _588  and  _591
REMARK  237  A    between atoms: _591  and  _592
REMARK  238  A    between atoms: _597  and  _599
REMARK  239  A    between atoms: _599  and  _600
REMARK  240  A    between atoms: _599  and  _602
REMARK  241  A    between atoms: _602  and  _603
REMARK  242  A    between atoms: _603  and  _604
REMARK  243  A    between atoms: _604  and  _605
REMARK  244  A    between atoms: _605  and  _606
REMARK  245  A    between atoms: _610  and  _612
REMARK  246  A    between atoms: _612  and  _613
REMARK  247  A    between atoms: _612  and  _615
REMARK  248  A    between atoms: _615  and  _616
REMARK  249  A    between atoms: _626  and  _628
REMARK  250  A    between atoms: _628  and  _629
REMARK  251  A    between atoms: _628  and  _631
REMARK  252  A    between atoms: _631  and  _632
REMARK  253  A    between atoms: _632  and  _633
REMARK  254  A    between atoms: _636  and  _638
REMARK  255  A    between atoms: _638  and  _639
REMARK  256  A    between atoms: _642  and  _644
REMARK  257  A    between atoms: _644  and  _645
REMARK  258  A    between atoms: _647  and  _649
REMARK  259  A    between atoms: _649  and  _650
REMARK  260  A    between atoms: _649  and  _652
REMARK  261  A    between atoms: _652  and  _653
REMARK  262  A    between atoms: _653  and  _654
REMARK  263  A    between atoms: _657  and  _659
REMARK  264  A    between atoms: _659  and  _660
REMARK  265  A    between atoms: _663  and  _665
REMARK  266  A    between atoms: _665  and  _666
REMARK  267  A    between atoms: _665  and  _668
REMARK  268  A    between atoms: _668  and  _669
REMARK  269  A    between atoms: _669  and  _670
REMARK  270  A    between atoms: _673  and  _675
REMARK  271  A    between atoms: _675  and  _676
REMARK  272  A    between atoms: _675  and  _678
REMARK  273  A    between atoms: _678  and  _679
REMARK  274  A    between atoms: _679  and  _680
REMARK  275  A    between atoms: _680  and  _681
REMARK  276  A    between atoms: _690  and  _692
REMARK  277  A    between atoms: _692  and  _693
REMARK  278  A    between atoms: _692  and  _695
REMARK  279  A    between atoms: _695  and  _696
REMARK  280  A    between atoms: _699  and  _701
REMARK  281  A    between atoms: _701  and  _702
REMARK  282  A    between atoms: _701  and  _704
REMARK  283  A    between atoms: _704  and  _705
REMARK  284  A    between atoms: _705  and  _706
REMARK  285  A    between atoms: _706  and  _707
REMARK  286  A    between atoms: _716  and  _718
REMARK  287  A    between atoms: _718  and  _719
REMARK  288  A    between atoms: _722  and  _724
REMARK  289  A    between atoms: _724  and  _725
REMARK  290  A    between atoms: _724  and  _727
REMARK  291  A    between atoms: _727  and  _728
REMARK  292  A    between atoms: _733  and  _734
REMARK  293  A    between atoms: _736  and  _738
REMARK  294  A    between atoms: _738  and  _739
REMARK  295  A    between atoms: _738  and  _741
REMARK  296  A    between atoms: _741  and  _742
REMARK  297  A    between atoms: _745  and  _747
REMARK  298  A    between atoms: _747  and  _748
REMARK  299  A    between atoms: _747  and  _750
REMARK  300  A    between atoms: _750  and  _751
REMARK  301  A    between atoms: _754  and  _756
REMARK  302  A    between atoms: _756  and  _757
REMARK  303  A    between atoms: _756  and  _759
REMARK  304  A    between atoms: _761  and  _763
REMARK  305  A    between atoms: _763  and  _764
REMARK  306  A    between atoms: _763  and  _766
REMARK  307  A    between atoms: _769  and  _771
REMARK  308  A    between atoms: _771  and  _772
REMARK  309  A    between atoms: _771  and  _774
REMARK  310  A    between atoms: _774  and  _775
REMARK  311  A    between atoms: _775  and  _776
REMARK  312  A    between atoms: _779  and  _781
REMARK  313  A    between atoms: _781  and  _782
REMARK  314  A    between atoms: _781  and  _784
REMARK  315  A    between atoms: _784  and  _785
REMARK  316  A    between atoms: _795  and  _797
REMARK  317  A    between atoms: _797  and  _798
REMARK  318  A    between atoms: _797  and  _800
REMARK  319  A    between atoms: _800  and  _801
REMARK  320  A    between atoms: _804  and  _806
REMARK  321  A    between atoms: _806  and  _807
REMARK  322  A    between atoms: _806  and  _809
REMARK  323  A    between atoms: _809  and  _810
REMARK  324  A    between atoms: _810  and  _811
REMARK  325  A    between atoms: _811  and  _812
REMARK  326  A    between atoms: _821  and  _823
REMARK  327  A    between atoms: _823  and  _824
REMARK  328  A    between atoms: _823  and  _826
REMARK  329  A    between atoms: _826  and  _827
REMARK  330  A    between atoms: _832  and  _833
REMARK                            x       y       z     vdW  Elec       q    Type
REMARK                         _______ _______ _______ _____ _____    ______ ____
ROOT
ATOM      1  O   HOH     1      49.486  68.467 -11.963  0.00  0.00    +0.000 OA
ENDROOT
TORSDOF 0
REMARK  Name = ../refined-set-2016/1fzm/1fzm_pocket.pdb
REMARK  330 active torsions:
REMARK  status: ('A' for Active; 'I' for Inactive)
REMARK    1  A    between atoms: _1  and  _3
REMARK    2  A    between atoms: _3  and  _4
REMARK    3  A    between atoms: _3  and  _6
REMARK    4  A    between atoms: _6  and  _7
REMARK    5  A    between atoms: _10  and  _12
REMARK    6  A    between atoms: _12  and  _13
REMARK    7  A    between atoms: _12  and  _15
REMARK    8  A    between atoms: _15  and  _16
REMARK    9  A    between atoms: _16  and  _17
REMARK   10  A    between atoms: _17  and  _18
REMARK   11  A    between atoms: _27  and  _29
REMARK   12  A    between atoms: _29  and  _30
REMARK   13  A    between atoms: _29  and  _32
REMARK   14  A    between atoms: _32  and  _33
REMARK   15  A    between atoms: _38  and  _39
REMARK   16  A    between atoms: _41  and  _43
REMARK   17  A    between atoms: _43  and  _44
REMARK   18  A    between atoms: _43  and  _46
REMARK   19  A    between atoms: _46  and  _47
REMARK   20  A    between atoms: _53  and  _55
REMARK   21  A    between atoms: _55  and  _56
REMARK   22  A    between atoms: _55  and  _58
REMARK   23  A    between atoms: _61  and  _63
REMARK   24  A    between atoms: _63  and  _64
REMARK   25  A    between atoms: _63  and  _66
REMARK   26  A    between atoms: _66  and  _67
REMARK   27  A    between atoms: _70  and  _72
REMARK   28  A    between atoms: _72  and  _73
REMARK   29  A    between atoms: _72  and  _75
REMARK   30  A    between atoms: _75  and  _76
REMARK   31  A    between atoms: _82  and  _84
REMARK   32  A    between atoms: _84  and  _85
REMARK   33  A    between atoms: _84  and  _87
REMARK   34  A    between atoms: _87  and  _88
REMARK   35  A    between atoms: _90  and  _92
REMARK   36  A    between atoms: _92  and  _93
REMARK   37  A    between atoms: _92  and  _95
REMARK   38  A    between atoms: _98  and  _100
REMARK   39  A    between atoms: _100  and  _101
REMARK   40  A    between atoms: _100  and  _103
REMARK   41  A    between atoms: _103  and  _104
REMARK   42  A    between atoms: _110  and  _112
REMARK   43  A    between atoms: _112  and  _113
REMARK   44  A    between atoms: _112  and  _115
REMARK   45  A    between atoms: _118  and  _120
REMARK   46  A    between atoms: _120  and  _121
REMARK   47  A    between atoms: _120  and  _123
REMARK   48  A    between atoms: _123  and  _124
REMARK   49  A    between atoms: _129  and  _130
REMARK   50  A    between atoms: _132  and  _134
REMARK   51  A    between atoms: _134  and  _135
REMARK   52  A    between atoms: _134  and  _137
REMARK   53  A    between atoms: _137  and  _138
REMARK   54  A    between atoms: _138  and  _139
REMARK   55  A    between atoms: _141  and  _143
REMARK   56  A    between atoms: _143  and  _144
REMARK   57  A    between atoms: _143  and  _146
REMARK   58  A    between atoms: _146  and  _147
REMARK   59  A    between atoms: _147  and  _148
REMARK   60  A    between atoms: _151  and  _153
REMARK   61  A    between atoms: _153  and  _154
REMARK   62  A    between atoms: _156  and  _158
REMARK   63  A    between atoms: _158  and  _159
REMARK   64  A    between atoms: _158  and  _161
REMARK   65  A    between atoms: _161  and  _162
REMARK   66  A    between atoms: _162  and  _163
REMARK   67  A    between atoms: _166  and  _168
REMARK   68  A    between atoms: _168  and  _169
REMARK   69  A    between atoms: _168  and  _171
REMARK   70  A    between atoms: _171  and  _172
REMARK   71  A    between atoms: _177  and  _178
REMARK   72  A    between atoms: _180  and  _182
REMARK   73  A    between atoms: _182  and  _183
REMARK   74  A    between atoms: _182  and  _185
REMARK   75  A    between atoms: _185  and  _186
REMARK   76  A    between atoms: _196  and  _198
REMARK   77  A    between atoms: _198  and  _199
REMARK   78  A    between atoms: _198  and  _201
REMARK   79  A    between atoms: _201  and  _202
REMARK   80  A    between atoms: _202  and  _203
REMARK   81  A    between atoms: _203  and  _204
REMARK   82  A    between atoms: _213  and  _215
REMARK   83  A    between atoms: _215  and  _216
REMARK   84  A    between atoms: _215  and  _218
REMARK   85  A    between atoms: _218  and  _219
REMARK   86  A    between atoms: _219  and  _220
REMARK   87  A    between atoms: _223  and  _225
REMARK   88  A    between atoms: _225  and  _226
REMARK   89  A    between atoms: _225  and  _228
REMARK   90  A    between atoms: _228  and  _229
REMARK   91  A    between atoms: _229  and  _230
REMARK   92  A    between atoms: _235  and  _237
REMARK   93  A    between atoms: _237  and  _238
REMARK   94  A    between atoms: _237  and  _240
REMARK   95  A    between atoms: _240  and  _241
REMARK   96  A    between atoms: _241  and  _242
REMARK   97  A    between atoms: _242  and  _243
REMARK   98  A    between atoms: _243  and  _244
REMARK   99  A    between atoms: _248  and  _250
REMARK  100  A    between atoms: _250  and  _251
REMARK  101  A    between atoms: _254  and  _256
REMARK  102  A    between atoms: _256  and  _257
REMARK  103  A    between atoms: _259  and  _261
REMARK  104  A    between atoms: _261  and  _262
REMARK  105  A    between atoms: _261  and  _264
REMARK  106  A    between atoms: _264  and  _265
REMARK  107  A    between atoms: _270  and  _272
REMARK  108  A    between atoms: _272  and  _273
REMARK  109  A    between atoms: _272  and  _275
REMARK  110  A    between atoms: _275  and  _276
REMARK  111  A    between atoms: _276  and  _277
REMARK  112  A    between atoms: _280  and  _282
REMARK  113  A    between atoms: _282  and  _283
REMARK  114  A    between atoms: _282  and  _285
REMARK  115  A    between atoms: _285  and  _286
REMARK  116  A    between atoms: _288  and  _290
REMARK  117  A    between atoms: _290  and  _291
REMARK  118  A    between atoms: _290  and  _293
REMARK  119  A    between atoms: _293  and  _294
REMARK  120  A    between atoms: _300  and  _302
REMARK  121  A    between atoms: _302  and  _303
REMARK  122  A    between atoms: _302  and  _305
REMARK  123  A    between atoms: _308  and  _310
REMARK  124  A    between atoms: _310  and  _311
REMARK  125  A    between atoms: _310  and  _313
REMARK  126  A    between atoms: _313  and  _314
REMARK  127  A    between atoms: _317  and  _319
REMARK  128  A    between atoms: _319  and  _320
REMARK  129  A    between atoms: _319  and  _322
REMARK  130  A    between atoms: _322  and  _323
REMARK  131  A    between atoms: _326  and  _328
REMARK  132  A    between atoms: _328  and  _329
REMARK  133  A    between atoms: _328  and  _331
REMARK  134  A    between atoms: _331  and  _332
REMARK  135  A    between atoms: _335  and  _337
REMARK  136  A    between atoms: _337  and  _338
REMARK  137  A    between atoms: _337  and  _340
REMARK  138  A    between atoms: _340  and  _341
REMARK  139  A    between atoms: _344  and  _346
REMARK  140  A    between atoms: _346  and  _347
REMARK  141  A    between atoms: _346  and  _349
REMARK  142  A    between atoms: _349  and  _350
REMARK  143  A    between atoms: _355  and  _356
REMARK  144  A    between atoms: _358  and  _360
REMARK  145  A    between atoms: _360  and  _361
REMARK  146  A    between atoms: _360  and  _363
REMARK  147  A    between atoms: _363  and  _364
REMARK  148  A    between atoms: _369  and  _370
REMARK  149  A    between atoms: _372  and  _374
REMARK  150  A    between atoms: _374  and  _375
REMARK  151  A    between atoms: _374  and  _377
REMARK  152  A    between atoms: _377  and  _378
REMARK  153  A    between atoms: _381  and  _383
REMARK  154  A    between atoms: _383  and  _384
REMARK  155  A    between atoms: _383  and  _386
REMARK  156  A    between atoms: _386  and  _387
REMARK  157  A    between atoms: _387  and  _388
REMARK  158  A    between atoms: _393  and  _395
REMARK  159  A    between atoms: _395  and  _396
REMARK  160  A    between atoms: _395  and  _398
REMARK  161  A    between atoms: _401  and  _403
REMARK  162  A    between atoms: _403  and  _404
REMARK  163  A    between atoms: _403  and  _406
REMARK  164  A    between atoms: _406  and  _407
REMARK  165  A    between atoms: _410  and  _412
REMARK  166  A    between atoms: _412  and  _413
REMARK  167  A    between atoms: _412  and  _415
REMARK  168  A    between atoms: _415  and  _416
REMARK  169  A    between atoms: _418  and  _420
REMARK  170  A    between atoms: _420  and  _421
REMARK  171  A    between atoms: _423  and  _425
REMARK  172  A    between atoms: _425  and  _426
REMARK  173  A    between atoms: _425  and  _428
REMARK  174  A    between atoms: _428  and  _429
REMARK  175  A    between atoms: _434  and  _435
REMARK  176  A    between atoms: _437  and  _439
REMARK  177  A    between atoms: _439  and  _440
REMARK  178  A    between atoms: _439  and  _442
REMARK  179  A    between atoms: _442  and  _443
REMARK  180  A    between atoms: _443  and  _444
REMARK  181  A    between atoms: _449  and  _451
REMARK  182  A    between atoms: _451  and  _452
REMARK  183  A    between atoms: _451  and  _454
REMARK  184  A    between atoms: _454  and  _455
REMARK  185  A    between atoms: _455  and  _456
REMARK  186  A    between atoms: _461  and  _463
REMARK  187  A    between atoms: _463  and  _464
REMARK  188  A    between atoms: _463  and  _466
REMARK  189  A    between atoms: _466  and  _467
REMARK  190  A    between atoms: _472  and  _473
REMARK  191  A    between atoms: _475  and  _477
REMARK  192  A    between atoms: _477  and  _478
REMARK  193  A    between atoms: _481  and  _483
REMARK  194  A    between atoms: _483  and  _484
REMARK  195  A    between atoms: _483  and  _486
REMARK  196  A    between atoms: _486  and  _487
REMARK  197  A    between atoms: _492  and  _493
REMARK  198  A    between atoms: _495  and  _497
REMARK  199  A    between atoms: _497  and  _498
REMARK  200  A    between atoms: _497  and  _500
REMARK  201  A    between atoms: _500  and  _501
REMARK  202  A    between atoms: _506  and  _507
REMARK  203  A    between atoms: _509  and  _511
REMARK  204  A    between atoms: _511  and  _512
REMARK  205  A    between atoms: _511  and  _514
REMARK  206  A    between atoms: _514  and  _515
REMARK  207  A    between atoms: _518  and  _520
REMARK  208  A    between atoms: _520  and  _521
REMARK  209  A    between atoms: _520  and  _523
REMARK  210  A    between atoms: _523  and  _524
REMARK  211  A    between atoms: _534  and  _536
REMARK  212  A    between atoms: _536  and  _537
REMARK  213  A    between atoms: _540  and  _542
REMARK  214  A    between atoms: _542  and  _543
REMARK  215  A    between atoms: _546  and  _548
REMARK  216  A    between atoms: _548  and  _549
REMARK  217  A    between atoms: _548  and  _551
REMARK  218  A    between atoms: _551  and  _552
REMARK  219  A    between atoms: _555  and  _557
REMARK  220  A    between atoms: _557  and  _558
REMARK  221  A    between atoms: _557  and  _560
REMARK  222  A    between atoms: _560  and  _561
REMARK  223  A    between atoms: _564  and  _566
REMARK  224  A    between atoms: _566  and  _567
REMARK  225  A    between atoms: _566  and  _569
REMARK  226  A    between atoms: _569  and  _570
REMARK  227  A    between atoms: _573  and  _575
REMARK  228  A    between atoms: _575  and  _576
REMARK  229  A    between atoms: _575  and  _578
REMARK  230  A    between atoms: _578  and  _579
REMARK  231  A    between atoms: _579  and  _580
REMARK  232  A    between atoms: _580  and  _581
REMARK  233  A    between atoms: _581  and  _582
REMARK  234  A    between atoms: _586  and  _588
REMARK  235  A    between atoms: _588  and  _589
REMARK  236  A    between atoms: _588  and  _591
REMARK  237  A    between atoms: _591  and  _592
REMARK  238  A    between atoms: _597  and  _599
REMARK  239  A    between atoms: _599  and  _600
REMARK  240  A    between atoms: _599  and  _602
REMARK  241  A    between atoms: _602  and  _603
REMARK  242  A    between atoms: _603  and  _604
REMARK  243  A    between atoms: _604  and  _605
REMARK  244  A    between atoms: _605  and  _606
REMARK  245  A    between atoms: _610  and  _612
REMARK  246  A    between atoms: _612  and  _613
REMARK  247  A    between atoms: _612  and  _615
REMARK  248  A    between atoms: _615  and  _616
REMARK  249  A    between atoms: _626  and  _628
REMARK  250  A    between atoms: _628  and  _629
REMARK  251  A    between atoms: _628  and  _631
REMARK  252  A    between atoms: _631  and  _632
REMARK  253  A    between atoms: _632  and  _633
REMARK  254  A    between atoms: _636  and  _638
REMARK  255  A    between atoms: _638  and  _639
REMARK  256  A    between atoms: _642  and  _644
REMARK  257  A    between atoms: _644  and  _645
REMARK  258  A    between atoms: _647  and  _649
REMARK  259  A    between atoms: _649  and  _650
REMARK  260  A    between atoms: _649  and  _652
REMARK  261  A    between atoms: _652  and  _653
REMARK  262  A    between atoms: _653  and  _654
REMARK  263  A    between atoms: _657  and  _659
REMARK  264  A    between atoms: _659  and  _660
REMARK  265  A    between atoms: _663  and  _665
REMARK  266  A    between atoms: _665  and  _666
REMARK  267  A    between atoms: _665  and  _668
REMARK  268  A    between atoms: _668  and  _669
REMARK  269  A    between atoms: _669  and  _670
REMARK  270  A    between atoms: _673  and  _675
REMARK  271  A    between atoms: _675  and  _676
REMARK  272  A    between atoms: _675  and  _678
REMARK  273  A    between atoms: _678  and  _679
REMARK  274  A    between atoms: _679  and  _680
REMARK  275  A    between atoms: _680  and  _681
REMARK  276  A    between atoms: _690  and  _692
REMARK  277  A    between atoms: _692  and  _693
REMARK  278  A    between atoms: _692  and  _695
REMARK  279  A    between atoms: _695  and  _696
REMARK  280  A    between atoms: _699  and  _701
REMARK  281  A    between atoms: _701  and  _702
REMARK  282  A    between atoms: _701  and  _704
REMARK  283  A    between atoms: _704  and  _705
REMARK  284  A    between atoms: _705  and  _706
REMARK  285  A    between atoms: _706  and  _707
REMARK  286  A    between atoms: _716  and  _718
REMARK  287  A    between atoms: _718  and  _719
REMARK  288  A    between atoms: _722  and  _724
REMARK  289  A    between atoms: _724  and  _725
REMARK  290  A    between atoms: _724  and  _727
REMARK  291  A    between atoms: _727  and  _728
REMARK  292  A    between atoms: _733  and  _734
REMARK  293  A    between atoms: _736  and  _738
REMARK  294  A    between atoms: _738  and  _739
REMARK  295  A    between atoms: _738  and  _741
REMARK  296  A    between atoms: _741  and  _742
REMARK  297  A    between atoms: _745  and  _747
REMARK  298  A    between atoms: _747  and  _748
REMARK  299  A    between atoms: _747  and  _750
REMARK  300  A    between atoms: _750  and  _751
REMARK  301  A    between atoms: _754  and  _756
REMARK  302  A    between atoms: _756  and  _757
REMARK  303  A    between atoms: _756  and  _759
REMARK  304  A    between atoms: _761  and  _763
REMARK  305  A    between atoms: _763  and  _764
REMARK  306  A    between atoms: _763  and  _766
REMARK  307  A    between atoms: _769  and  _771
REMARK  308  A    between atoms: _771  and  _772
REMARK  309  A    between atoms: _771  and  _774
REMARK  310  A    between atoms: _774  and  _775
REMARK  311  A    between atoms: _775  and  _776
REMARK  312  A    between atoms: _779  and  _781
REMARK  313  A    between atoms: _781  and  _782
REMARK  314  A    between atoms: _781  and  _784
REMARK  315  A    between atoms: _784  and  _785
REMARK  316  A    between atoms: _795  and  _797
REMARK  317  A    between atoms: _797  and  _798
REMARK  318  A    between atoms: _797  and  _800
REMARK  319  A    between atoms: _800  and  _801
REMARK  320  A    between atoms: _804  and  _806
REMARK  321  A    between atoms: _806  and  _807
REMARK  322  A    between atoms: _806  and  _809
REMARK  323  A    between atoms: _809  and  _810
REMARK  324  A    between atoms: _810  and  _811
REMARK  325  A    between atoms: _811  and  _812
REMARK  326  A    between atoms: _821  and  _823
REMARK  327  A    between atoms: _823  and  _824
REMARK  328  A    between atoms: _823  and  _826
REMARK  329  A    between atoms: _826  and  _827
REMARK  330  A    between atoms: _832  and  _833
REMARK                            x       y       z     vdW  Elec       q    Type
REMARK                         _______ _______ _______ _____ _____    ______ ____
ROOT
ATOM      1  O   HOH     1      45.722  52.000  -4.450  0.00  0.00    +0.000 OA
ENDROOT
TORSDOF 0
REMARK  Name = ../refined-set-2016/1fzm/1fzm_pocket.pdb
REMARK  330 active torsions:
REMARK  status: ('A' for Active; 'I' for Inactive)
REMARK    1  A    between atoms: _1  and  _3
REMARK    2  A    between atoms: _3  and  _4
REMARK    3  A    between atoms: _3  and  _6
REMARK    4  A    between atoms: _6  and  _7
REMARK    5  A    between atoms: _10  and  _12
REMARK    6  A    between atoms: _12  and  _13
REMARK    7  A    between atoms: _12  and  _15
REMARK    8  A    between atoms: _15  and  _16
REMARK    9  A    between atoms: _16  and  _17
REMARK   10  A    between atoms: _17  and  _18
REMARK   11  A    between atoms: _27  and  _29
REMARK   12  A    between atoms: _29  and  _30
REMARK   13  A    between atoms: _29  and  _32
REMARK   14  A    between atoms: _32  and  _33
REMARK   15  A    between atoms: _38  and  _39
REMARK   16  A    between atoms: _41  and  _43
REMARK   17  A    between atoms: _43  and  _44
REMARK   18  A    between atoms: _43  and  _46
REMARK   19  A    between atoms: _46  and  _47
REMARK   20  A    between atoms: _53  and  _55
REMARK   21  A    between atoms: _55  and  _56
REMARK   22  A    between atoms: _55  and  _58
REMARK   23  A    between atoms: _61  and  _63
REMARK   24  A    between atoms: _63  and  _64
REMARK   25  A    between atoms: _63  and  _66
REMARK   26  A    between atoms: _66  and  _67
REMARK   27  A    between atoms: _70  and  _72
REMARK   28  A    between atoms: _72  and  _73
REMARK   29  A    between atoms: _72  and  _75
REMARK   30  A    between atoms: _75  and  _76
REMARK   31  A    between atoms: _82  and  _84
REMARK   32  A    between atoms: _84  and  _85
REMARK   33  A    between atoms: _84  and  _87
REMARK   34  A    between atoms: _87  and  _88
REMARK   35  A    between atoms: _90  and  _92
REMARK   36  A    between atoms: _92  and  _93
REMARK   37  A    between atoms: _92  and  _95
REMARK   38  A    between atoms: _98  and  _100
REMARK   39  A    between atoms: _100  and  _101
REMARK   40  A    between atoms: _100  and  _103
REMARK   41  A    between atoms: _103  and  _104
REMARK   42  A    between atoms: _110  and  _112
REMARK   43  A    between atoms: _112  and  _113
REMARK   44  A    between atoms: _112  and  _115
REMARK   45  A    between atoms: _118  and  _120
REMARK   46  A    between atoms: _120  and  _121
REMARK   47  A    between atoms: _120  and  _123
REMARK   48  A    between atoms: _123  and  _124
REMARK   49  A    between atoms: _129  and  _130
REMARK   50  A    between atoms: _132  and  _134
REMARK   51  A    between atoms: _134  and  _135
REMARK   52  A    between atoms: _134  and  _137
REMARK   53  A    between atoms: _137  and  _138
REMARK   54  A    between atoms: _138  and  _139
REMARK   55  A    between atoms: _141  and  _143
REMARK   56  A    between atoms: _143  and  _144
REMARK   57  A    between atoms: _143  and  _146
REMARK   58  A    between atoms: _146  and  _147
REMARK   59  A    between atoms: _147  and  _148
REMARK   60  A    between atoms: _151  and  _153
REMARK   61  A    between atoms: _153  and  _154
REMARK   62  A    between atoms: _156  and  _158
REMARK   63  A    between atoms: _158  and  _159
REMARK   64  A    between atoms: _158  and  _161
REMARK   65  A    between atoms: _161  and  _162
REMARK   66  A    between atoms: _162  and  _163
REMARK   67  A    between atoms: _166  and  _168
REMARK   68  A    between atoms: _168  and  _169
REMARK   69  A    between atoms: _168  and  _171
REMARK   70  A    between atoms: _171  and  _172
REMARK   71  A    between atoms: _177  and  _178
REMARK   72  A    between atoms: _180  and  _182
REMARK   73  A    between atoms: _182  and  _183
REMARK   74  A    between atoms: _182  and  _185
REMARK   75  A    between atoms: _185  and  _186
REMARK   76  A    between atoms: _196  and  _198
REMARK   77  A    between atoms: _198  and  _199
REMARK   78  A    between atoms: _198  and  _201
REMARK   79  A    between atoms: _201  and  _202
REMARK   80  A    between atoms: _202  and  _203
REMARK   81  A    between atoms: _203  and  _204
REMARK   82  A    between atoms: _213  and  _215
REMARK   83  A    between atoms: _215  and  _216
REMARK   84  A    between atoms: _215  and  _218
REMARK   85  A    between atoms: _218  and  _219
REMARK   86  A    between atoms: _219  and  _220
REMARK   87  A    between atoms: _223  and  _225
REMARK   88  A    between atoms: _225  and  _226
REMARK   89  A    between atoms: _225  and  _228
REMARK   90  A    between atoms: _228  and  _229
REMARK   91  A    between atoms: _229  and  _230
REMARK   92  A    between atoms: _235  and  _237
REMARK   93  A    between atoms: _237  and  _238
REMARK   94  A    between atoms: _237  and  _240
REMARK   95  A    between atoms: _240  and  _241
REMARK   96  A    between atoms: _241  and  _242
REMARK   97  A    between atoms: _242  and  _243
REMARK   98  A    between atoms: _243  and  _244
REMARK   99  A    between atoms: _248  and  _250
REMARK  100  A    between atoms: _250  and  _251
REMARK  101  A    between atoms: _254  and  _256
REMARK  102  A    between atoms: _256  and  _257
REMARK  103  A    between atoms: _259  and  _261
REMARK  104  A    between atoms: _261  and  _262
REMARK  105  A    between atoms: _261  and  _264
REMARK  106  A    between atoms: _264  and  _265
REMARK  107  A    between atoms: _270  and  _272
REMARK  108  A    between atoms: _272  and  _273
REMARK  109  A    between atoms: _272  and  _275
REMARK  110  A    between atoms: _275  and  _276
REMARK  111  A    between atoms: _276  and  _277
REMARK  112  A    between atoms: _280  and  _282
REMARK  113  A    between atoms: _282  and  _283
REMARK  114  A    between atoms: _282  and  _285
REMARK  115  A    between atoms: _285  and  _286
REMARK  116  A    between atoms: _288  and  _290
REMARK  117  A    between atoms: _290  and  _291
REMARK  118  A    between atoms: _290  and  _293
REMARK  119  A    between atoms: _293  and  _294
REMARK  120  A    between atoms: _300  and  _302
REMARK  121  A    between atoms: _302  and  _303
REMARK  122  A    between atoms: _302  and  _305
REMARK  123  A    between atoms: _308  and  _310
REMARK  124  A    between atoms: _310  and  _311
REMARK  125  A    between atoms: _310  and  _313
REMARK  126  A    between atoms: _313  and  _314
REMARK  127  A    between atoms: _317  and  _319
REMARK  128  A    between atoms: _319  and  _320
REMARK  129  A    between atoms: _319  and  _322
REMARK  130  A    between atoms: _322  and  _323
REMARK  131  A    between atoms: _326  and  _328
REMARK  132  A    between atoms: _328  and  _329
REMARK  133  A    between atoms: _328  and  _331
REMARK  134  A    between atoms: _331  and  _332
REMARK  135  A    between atoms: _335  and  _337
REMARK  136  A    between atoms: _337  and  _338
REMARK  137  A    between atoms: _337  and  _340
REMARK  138  A    between atoms: _340  and  _341
REMARK  139  A    between atoms: _344  and  _346
REMARK  140  A    between atoms: _346  and  _347
REMARK  141  A    between atoms: _346  and  _349
REMARK  142  A    between atoms: _349  and  _350
REMARK  143  A    between atoms: _355  and  _356
REMARK  144  A    between atoms: _358  and  _360
REMARK  145  A    between atoms: _360  and  _361
REMARK  146  A    between atoms: _360  and  _363
REMARK  147  A    between atoms: _363  and  _364
REMARK  148  A    between atoms: _369  and  _370
REMARK  149  A    between atoms: _372  and  _374
REMARK  150  A    between atoms: _374  and  _375
REMARK  151  A    between atoms: _374  and  _377
REMARK  152  A    between atoms: _377  and  _378
REMARK  153  A    between atoms: _381  and  _383
REMARK  154  A    between atoms: _383  and  _384
REMARK  155  A    between atoms: _383  and  _386
REMARK  156  A    between atoms: _386  and  _387
REMARK  157  A    between atoms: _387  and  _388
REMARK  158  A    between atoms: _393  and  _395
REMARK  159  A    between atoms: _395  and  _396
REMARK  160  A    between atoms: _395  and  _398
REMARK  161  A    between atoms: _401  and  _403
REMARK  162  A    between atoms: _403  and  _404
REMARK  163  A    between atoms: _403  and  _406
REMARK  164  A    between atoms: _406  and  _407
REMARK  165  A    between atoms: _410  and  _412
REMARK  166  A    between atoms: _412  and  _413
REMARK  167  A    between atoms: _412  and  _415
REMARK  168  A    between atoms: _415  and  _416
REMARK  169  A    between atoms: _418  and  _420
REMARK  170  A    between atoms: _420  and  _421
REMARK  171  A    between atoms: _423  and  _425
REMARK  172  A    between atoms: _425  and  _426
REMARK  173  A    between atoms: _425  and  _428
REMARK  174  A    between atoms: _428  and  _429
REMARK  175  A    between atoms: _434  and  _435
REMARK  176  A    between atoms: _437  and  _439
REMARK  177  A    between atoms: _439  and  _440
REMARK  178  A    between atoms: _439  and  _442
REMARK  179  A    between atoms: _442  and  _443
REMARK  180  A    between atoms: _443  and  _444
REMARK  181  A    between atoms: _449  and  _451
REMARK  182  A    between atoms: _451  and  _452
REMARK  183  A    between atoms: _451  and  _454
REMARK  184  A    between atoms: _454  and  _455
REMARK  185  A    between atoms: _455  and  _456
REMARK  186  A    between atoms: _461  and  _463
REMARK  187  A    between atoms: _463  and  _464
REMARK  188  A    between atoms: _463  and  _466
REMARK  189  A    between atoms: _466  and  _467
REMARK  190  A    between atoms: _472  and  _473
REMARK  191  A    between atoms: _475  and  _477
REMARK  192  A    between atoms: _477  and  _478
REMARK  193  A    between atoms: _481  and  _483
REMARK  194  A    between atoms: _483  and  _484
REMARK  195  A    between atoms: _483  and  _486
REMARK  196  A    between atoms: _486  and  _487
REMARK  197  A    between atoms: _492  and  _493
REMARK  198  A    between atoms: _495  and  _497
REMARK  199  A    between atoms: _497  and  _498
REMARK  200  A    between atoms: _497  and  _500
REMARK  201  A    between atoms: _500  and  _501
REMARK  202  A    between atoms: _506  and  _507
REMARK  203  A    between atoms: _509  and  _511
REMARK  204  A    between atoms: _511  and  _512
REMARK  205  A    between atoms: _511  and  _514
REMARK  206  A    between atoms: _514  and  _515
REMARK  207  A    between atoms: _518  and  _520
REMARK  208  A    between atoms: _520  and  _521
REMARK  209  A    between atoms: _520  and  _523
REMARK  210  A    between atoms: _523  and  _524
REMARK  211  A    between atoms: _534  and  _536
REMARK  212  A    between atoms: _536  and  _537
REMARK  213  A    between atoms: _540  and  _542
REMARK  214  A    between atoms: _542  and  _543
REMARK  215  A    between atoms: _546  and  _548
REMARK  216  A    between atoms: _548  and  _549
REMARK  217  A    between atoms: _548  and  _551
REMARK  218  A    between atoms: _551  and  _552
REMARK  219  A    between atoms: _555  and  _557
REMARK  220  A    between atoms: _557  and  _558
REMARK  221  A    between atoms: _557  and  _560
REMARK  222  A    between atoms: _560  and  _561
REMARK  223  A    between atoms: _564  and  _566
REMARK  224  A    between atoms: _566  and  _567
REMARK  225  A    between atoms: _566  and  _569
REMARK  226  A    between atoms: _569  and  _570
REMARK  227  A    between atoms: _573  and  _575
REMARK  228  A    between atoms: _575  and  _576
REMARK  229  A    between atoms: _575  and  _578
REMARK  230  A    between atoms: _578  and  _579
REMARK  231  A    between atoms: _579  and  _580
REMARK  232  A    between atoms: _580  and  _581
REMARK  233  A    between atoms: _581  and  _582
REMARK  234  A    between atoms: _586  and  _588
REMARK  235  A    between atoms: _588  and  _589
REMARK  236  A    between atoms: _588  and  _591
REMARK  237  A    between atoms: _591  and  _592
REMARK  238  A    between atoms: _597  and  _599
REMARK  239  A    between atoms: _599  and  _600
REMARK  240  A    between atoms: _599  and  _602
REMARK  241  A    between atoms: _602  and  _603
REMARK  242  A    between atoms: _603  and  _604
REMARK  243  A    between atoms: _604  and  _605
REMARK  244  A    between atoms: _605  and  _606
REMARK  245  A    between atoms: _610  and  _612
REMARK  246  A    between atoms: _612  and  _613
REMARK  247  A    between atoms: _612  and  _615
REMARK  248  A    between atoms: _615  and  _616
REMARK  249  A    between atoms: _626  and  _628
REMARK  250  A    between atoms: _628  and  _629
REMARK  251  A    between atoms: _628  and  _631
REMARK  252  A    between atoms: _631  and  _632
REMARK  253  A    between atoms: _632  and  _633
REMARK  254  A    between atoms: _636  and  _638
REMARK  255  A    between atoms: _638  and  _639
REMARK  256  A    between atoms: _642  and  _644
REMARK  257  A    between atoms: _644  and  _645
REMARK  258  A    between atoms: _647  and  _649
REMARK  259  A    between atoms: _649  and  _650
REMARK  260  A    between atoms: _649  and  _652
REMARK  261  A    between atoms: _652  and  _653
REMARK  262  A    between atoms: _653  and  _654
REMARK  263  A    between atoms: _657  and  _659
REMARK  264  A    between atoms: _659  and  _660
REMARK  265  A    between atoms: _663  and  _665
REMARK  266  A    between atoms: _665  and  _666
REMARK  267  A    between atoms: _665  and  _668
REMARK  268  A    between atoms: _668  and  _669
REMARK  269  A    between atoms: _669  and  _670
REMARK  270  A    between atoms: _673  and  _675
REMARK  271  A    between atoms: _675  and  _676
REMARK  272  A    between atoms: _675  and  _678
REMARK  273  A    between atoms: _678  and  _679
REMARK  274  A    between atoms: _679  and  _680
REMARK  275  A    between atoms: _680  and  _681
REMARK  276  A    between atoms: _690  and  _692
REMARK  277  A    between atoms: _692  and  _693
REMARK  278  A    between atoms: _692  and  _695
REMARK  279  A    between atoms: _695  and  _696
REMARK  280  A    between atoms: _699  and  _701
REMARK  281  A    between atoms: _701  and  _702
REMARK  282  A    between atoms: _701  and  _704
REMARK  283  A    between atoms: _704  and  _705
REMARK  284  A    between atoms: _705  and  _706
REMARK  285  A    between atoms: _706  and  _707
REMARK  286  A    between atoms: _716  and  _718
REMARK  287  A    between atoms: _718  and  _719
REMARK  288  A    between atoms: _722  and  _724
REMARK  289  A    between atoms: _724  and  _725
REMARK  290  A    between atoms: _724  and  _727
REMARK  291  A    between atoms: _727  and  _728
REMARK  292  A    between atoms: _733  and  _734
REMARK  293  A    between atoms: _736  and  _738
REMARK  294  A    between atoms: _738  and  _739
REMARK  295  A    between atoms: _738  and  _741
REMARK  296  A    between atoms: _741  and  _742
REMARK  297  A    between atoms: _745  and  _747
REMARK  298  A    between atoms: _747  and  _748
REMARK  299  A    between atoms: _747  and  _750
REMARK  300  A    between atoms: _750  and  _751
REMARK  301  A    between atoms: _754  and  _756
REMARK  302  A    between atoms: _756  and  _757
REMARK  303  A    between atoms: _756  and  _759
REMARK  304  A    between atoms: _761  and  _763
REMARK  305  A    between atoms: _763  and  _764
REMARK  306  A    between atoms: _763  and  _766
REMARK  307  A    between atoms: _769  and  _771
REMARK  308  A    between atoms: _771  and  _772
REMARK  309  A    between atoms: _771  and  _774
REMARK  310  A    between atoms: _774  and  _775
REMARK  311  A    between atoms: _775  and  _776
REMARK  312  A    between atoms: _779  and  _781
REMARK  313  A    between atoms: _781  and  _782
REMARK  314  A    between atoms: _781  and  _784
REMARK  315  A    between atoms: _784  and  _785
REMARK  316  A    between atoms: _795  and  _797
REMARK  317  A    between atoms: _797  and  _798
REMARK  318  A    between atoms: _797  and  _800
REMARK  319  A    between atoms: _800  and  _801
REMARK  320  A    between atoms: _804  and  _806
REMARK  321  A    between atoms: _806  and  _807
REMARK  322  A    between atoms: _806  and  _809
REMARK  323  A    between atoms: _809  and  _810
REMARK  324  A    between atoms: _810  and  _811
REMARK  325  A    between atoms: _811  and  _812
REMARK  326  A    between atoms: _821  and  _823
REMARK  327  A    between atoms: _823  and  _824
REMARK  328  A    between atoms: _823  and  _826
REMARK  329  A    between atoms: _826  and  _827
REMARK  330  A    between atoms: _832  and  _833
REMARK                            x       y       z     vdW  Elec       q    Type
REMARK                         _______ _______ _______ _____ _____    ______ ____
ROOT
ATOM      1  O   HOH     1      49.965  62.595  14.201  0.00  0.00    +0.000 OA
ENDROOT
TORSDOF 0
REMARK  Name = ../refined-set-2016/1fzm/1fzm_pocket.pdb
REMARK  330 active torsions:
REMARK  status: ('A' for Active; 'I' for Inactive)
REMARK    1  A    between atoms: _1  and  _3
REMARK    2  A    between atoms: _3  and  _4
REMARK    3  A    between atoms: _3  and  _6
REMARK    4  A    between atoms: _6  and  _7
REMARK    5  A    between atoms: _10  and  _12
REMARK    6  A    between atoms: _12  and  _13
REMARK    7  A    between atoms: _12  and  _15
REMARK    8  A    between atoms: _15  and  _16
REMARK    9  A    between atoms: _16  and  _17
REMARK   10  A    between atoms: _17  and  _18
REMARK   11  A    between atoms: _27  and  _29
REMARK   12  A    between atoms: _29  and  _30
REMARK   13  A    between atoms: _29  and  _32
REMARK   14  A    between atoms: _32  and  _33
REMARK   15  A    between atoms: _38  and  _39
REMARK   16  A    between atoms: _41  and  _43
REMARK   17  A    between atoms: _43  and  _44
REMARK   18  A    between atoms: _43  and  _46
REMARK   19  A    between atoms: _46  and  _47
REMARK   20  A    between atoms: _53  and  _55
REMARK   21  A    between atoms: _55  and  _56
REMARK   22  A    between atoms: _55  and  _58
REMARK   23  A    between atoms: _61  and  _63
REMARK   24  A    between atoms: _63  and  _64
REMARK   25  A    between atoms: _63  and  _66
REMARK   26  A    between atoms: _66  and  _67
REMARK   27  A    between atoms: _70  and  _72
REMARK   28  A    between atoms: _72  and  _73
REMARK   29  A    between atoms: _72  and  _75
REMARK   30  A    between atoms: _75  and  _76
REMARK   31  A    between atoms: _82  and  _84
REMARK   32  A    between atoms: _84  and  _85
REMARK   33  A    between atoms: _84  and  _87
REMARK   34  A    between atoms: _87  and  _88
REMARK   35  A    between atoms: _90  and  _92
REMARK   36  A    between atoms: _92  and  _93
REMARK   37  A    between atoms: _92  and  _95
REMARK   38  A    between atoms: _98  and  _100
REMARK   39  A    between atoms: _100  and  _101
REMARK   40  A    between atoms: _100  and  _103
REMARK   41  A    between atoms: _103  and  _104
REMARK   42  A    between atoms: _110  and  _112
REMARK   43  A    between atoms: _112  and  _113
REMARK   44  A    between atoms: _112  and  _115
REMARK   45  A    between atoms: _118  and  _120
REMARK   46  A    between atoms: _120  and  _121
REMARK   47  A    between atoms: _120  and  _123
REMARK   48  A    between atoms: _123  and  _124
REMARK   49  A    between atoms: _129  and  _130
REMARK   50  A    between atoms: _132  and  _134
REMARK   51  A    between atoms: _134  and  _135
REMARK   52  A    between atoms: _134  and  _137
REMARK   53  A    between atoms: _137  and  _138
REMARK   54  A    between atoms: _138  and  _139
REMARK   55  A    between atoms: _141  and  _143
REMARK   56  A    between atoms: _143  and  _144
REMARK   57  A    between atoms: _143  and  _146
REMARK   58  A    between atoms: _146  and  _147
REMARK   59  A    between atoms: _147  and  _148
REMARK   60  A    between atoms: _151  and  _153
REMARK   61  A    between atoms: _153  and  _154
REMARK   62  A    between atoms: _156  and  _158
REMARK   63  A    between atoms: _158  and  _159
REMARK   64  A    between atoms: _158  and  _161
REMARK   65  A    between atoms: _161  and  _162
REMARK   66  A    between atoms: _162  and  _163
REMARK   67  A    between atoms: _166  and  _168
REMARK   68  A    between atoms: _168  and  _169
REMARK   69  A    between atoms: _168  and  _171
REMARK   70  A    between atoms: _171  and  _172
REMARK   71  A    between atoms: _177  and  _178
REMARK   72  A    between atoms: _180  and  _182
REMARK   73  A    between atoms: _182  and  _183
REMARK   74  A    between atoms: _182  and  _185
REMARK   75  A    between atoms: _185  and  _186
REMARK   76  A    between atoms: _196  and  _198
REMARK   77  A    between atoms: _198  and  _199
REMARK   78  A    between atoms: _198  and  _201
REMARK   79  A    between atoms: _201  and  _202
REMARK   80  A    between atoms: _202  and  _203
REMARK   81  A    between atoms: _203  and  _204
REMARK   82  A    between atoms: _213  and  _215
REMARK   83  A    between atoms: _215  and  _216
REMARK   84  A    between atoms: _215  and  _218
REMARK   85  A    between atoms: _218  and  _219
REMARK   86  A    between atoms: _219  and  _220
REMARK   87  A    between atoms: _223  and  _225
REMARK   88  A    between atoms: _225  and  _226
REMARK   89  A    between atoms: _225  and  _228
REMARK   90  A    between atoms: _228  and  _229
REMARK   91  A    between atoms: _229  and  _230
REMARK   92  A    between atoms: _235  and  _237
REMARK   93  A    between atoms: _237  and  _238
REMARK   94  A    between atoms: _237  and  _240
REMARK   95  A    between atoms: _240  and  _241
REMARK   96  A    between atoms: _241  and  _242
REMARK   97  A    between atoms: _242  and  _243
REMARK   98  A    between atoms: _243  and  _244
REMARK   99  A    between atoms: _248  and  _250
REMARK  100  A    between atoms: _250  and  _251
REMARK  101  A    between atoms: _254  and  _256
REMARK  102  A    between atoms: _256  and  _257
REMARK  103  A    between atoms: _259  and  _261
REMARK  104  A    between atoms: _261  and  _262
REMARK  105  A    between atoms: _261  and  _264
REMARK  106  A    between atoms: _264  and  _265
REMARK  107  A    between atoms: _270  and  _272
REMARK  108  A    between atoms: _272  and  _273
REMARK  109  A    between atoms: _272  and  _275
REMARK  110  A    between atoms: _275  and  _276
REMARK  111  A    between atoms: _276  and  _277
REMARK  112  A    between atoms: _280  and  _282
REMARK  113  A    between atoms: _282  and  _283
REMARK  114  A    between atoms: _282  and  _285
REMARK  115  A    between atoms: _285  and  _286
REMARK  116  A    between atoms: _288  and  _290
REMARK  117  A    between atoms: _290  and  _291
REMARK  118  A    between atoms: _290  and  _293
REMARK  119  A    between atoms: _293  and  _294
REMARK  120  A    between atoms: _300  and  _302
REMARK  121  A    between atoms: _302  and  _303
REMARK  122  A    between atoms: _302  and  _305
REMARK  123  A    between atoms: _308  and  _310
REMARK  124  A    between atoms: _310  and  _311
REMARK  125  A    between atoms: _310  and  _313
REMARK  126  A    between atoms: _313  and  _314
REMARK  127  A    between atoms: _317  and  _319
REMARK  128  A    between atoms: _319  and  _320
REMARK  129  A    between atoms: _319  and  _322
REMARK  130  A    between atoms: _322  and  _323
REMARK  131  A    between atoms: _326  and  _328
REMARK  132  A    between atoms: _328  and  _329
REMARK  133  A    between atoms: _328  and  _331
REMARK  134  A    between atoms: _331  and  _332
REMARK  135  A    between atoms: _335  and  _337
REMARK  136  A    between atoms: _337  and  _338
REMARK  137  A    between atoms: _337  and  _340
REMARK  138  A    between atoms: _340  and  _341
REMARK  139  A    between atoms: _344  and  _346
REMARK  140  A    between atoms: _346  and  _347
REMARK  141  A    between atoms: _346  and  _349
REMARK  142  A    between atoms: _349  and  _350
REMARK  143  A    between atoms: _355  and  _356
REMARK  144  A    between atoms: _358  and  _360
REMARK  145  A    between atoms: _360  and  _361
REMARK  146  A    between atoms: _360  and  _363
REMARK  147  A    between atoms: _363  and  _364
REMARK  148  A    between atoms: _369  and  _370
REMARK  149  A    between atoms: _372  and  _374
REMARK  150  A    between atoms: _374  and  _375
REMARK  151  A    between atoms: _374  and  _377
REMARK  152  A    between atoms: _377  and  _378
REMARK  153  A    between atoms: _381  and  _383
REMARK  154  A    between atoms: _383  and  _384
REMARK  155  A    between atoms: _383  and  _386
REMARK  156  A    between atoms: _386  and  _387
REMARK  157  A    between atoms: _387  and  _388
REMARK  158  A    between atoms: _393  and  _395
REMARK  159  A    between atoms: _395  and  _396
REMARK  160  A    between atoms: _395  and  _398
REMARK  161  A    between atoms: _401  and  _403
REMARK  162  A    between atoms: _403  and  _404
REMARK  163  A    between atoms: _403  and  _406
REMARK  164  A    between atoms: _406  and  _407
REMARK  165  A    between atoms: _410  and  _412
REMARK  166  A    between atoms: _412  and  _413
REMARK  167  A    between atoms: _412  and  _415
REMARK  168  A    between atoms: _415  and  _416
REMARK  169  A    between atoms: _418  and  _420
REMARK  170  A    between atoms: _420  and  _421
REMARK  171  A    between atoms: _423  and  _425
REMARK  172  A    between atoms: _425  and  _426
REMARK  173  A    between atoms: _425  and  _428
REMARK  174  A    between atoms: _428  and  _429
REMARK  175  A    between atoms: _434  and  _435
REMARK  176  A    between atoms: _437  and  _439
REMARK  177  A    between atoms: _439  and  _440
REMARK  178  A    between atoms: _439  and  _442
REMARK  179  A    between atoms: _442  and  _443
REMARK  180  A    between atoms: _443  and  _444
REMARK  181  A    between atoms: _449  and  _451
REMARK  182  A    between atoms: _451  and  _452
REMARK  183  A    between atoms: _451  and  _454
REMARK  184  A    between atoms: _454  and  _455
REMARK  185  A    between atoms: _455  and  _456
REMARK  186  A    between atoms: _461  and  _463
REMARK  187  A    between atoms: _463  and  _464
REMARK  188  A    between atoms: _463  and  _466
REMARK  189  A    between atoms: _466  and  _467
REMARK  190  A    between atoms: _472  and  _473
REMARK  191  A    between atoms: _475  and  _477
REMARK  192  A    between atoms: _477  and  _478
REMARK  193  A    between atoms: _481  and  _483
REMARK  194  A    between atoms: _483  and  _484
REMARK  195  A    between atoms: _483  and  _486
REMARK  196  A    between atoms: _486  and  _487
REMARK  197  A    between atoms: _492  and  _493
REMARK  198  A    between atoms: _495  and  _497
REMARK  199  A    between atoms: _497  and  _498
REMARK  200  A    between atoms: _497  and  _500
REMARK  201  A    between atoms: _500  and  _501
REMARK  202  A    between atoms: _506  and  _507
REMARK  203  A    between atoms: _509  and  _511
REMARK  204  A    between atoms: _511  and  _512
REMARK  205  A    between atoms: _511  and  _514
REMARK  206  A    between atoms: _514  and  _515
REMARK  207  A    between atoms: _518  and  _520
REMARK  208  A    between atoms: _520  and  _521
REMARK  209  A    between atoms: _520  and  _523
REMARK  210  A    between atoms: _523  and  _524
REMARK  211  A    between atoms: _534  and  _536
REMARK  212  A    between atoms: _536  and  _537
REMARK  213  A    between atoms: _540  and  _542
REMARK  214  A    between atoms: _542  and  _543
REMARK  215  A    between atoms: _546  and  _548
REMARK  216  A    between atoms: _548  and  _549
REMARK  217  A    between atoms: _548  and  _551
REMARK  218  A    between atoms: _551  and  _552
REMARK  219  A    between atoms: _555  and  _557
REMARK  220  A    between atoms: _557  and  _558
REMARK  221  A    between atoms: _557  and  _560
REMARK  222  A    between atoms: _560  and  _561
REMARK  223  A    between atoms: _564  and  _566
REMARK  224  A    between atoms: _566  and  _567
REMARK  225  A    between atoms: _566  and  _569
REMARK  226  A    between atoms: _569  and  _570
REMARK  227  A    between atoms: _573  and  _575
REMARK  228  A    between atoms: _575  and  _576
REMARK  229  A    between atoms: _575  and  _578
REMARK  230  A    between atoms: _578  and  _579
REMARK  231  A    between atoms: _579  and  _580
REMARK  232  A    between atoms: _580  and  _581
REMARK  233  A    between atoms: _581  and  _582
REMARK  234  A    between atoms: _586  and  _588
REMARK  235  A    between atoms: _588  and  _589
REMARK  236  A    between atoms: _588  and  _591
REMARK  237  A    between atoms: _591  and  _592
REMARK  238  A    between atoms: _597  and  _599
REMARK  239  A    between atoms: _599  and  _600
REMARK  240  A    between atoms: _599  and  _602
REMARK  241  A    between atoms: _602  and  _603
REMARK  242  A    between atoms: _603  and  _604
REMARK  243  A    between atoms: _604  and  _605
REMARK  244  A    between atoms: _605  and  _606
REMARK  245  A    between atoms: _610  and  _612
REMARK  246  A    between atoms: _612  and  _613
REMARK  247  A    between atoms: _612  and  _615
REMARK  248  A    between atoms: _615  and  _616
REMARK  249  A    between atoms: _626  and  _628
REMARK  250  A    between atoms: _628  and  _629
REMARK  251  A    between atoms: _628  and  _631
REMARK  252  A    between atoms: _631  and  _632
REMARK  253  A    between atoms: _632  and  _633
REMARK  254  A    between atoms: _636  and  _638
REMARK  255  A    between atoms: _638  and  _639
REMARK  256  A    between atoms: _642  and  _644
REMARK  257  A    between atoms: _644  and  _645
REMARK  258  A    between atoms: _647  and  _649
REMARK  259  A    between atoms: _649  and  _650
REMARK  260  A    between atoms: _649  and  _652
REMARK  261  A    between atoms: _652  and  _653
REMARK  262  A    between atoms: _653  and  _654
REMARK  263  A    between atoms: _657  and  _659
REMARK  264  A    between atoms: _659  and  _660
REMARK  265  A    between atoms: _663  and  _665
REMARK  266  A    between atoms: _665  and  _666
REMARK  267  A    between atoms: _665  and  _668
REMARK  268  A    between atoms: _668  and  _669
REMARK  269  A    between atoms: _669  and  _670
REMARK  270  A    between atoms: _673  and  _675
REMARK  271  A    between atoms: _675  and  _676
REMARK  272  A    between atoms: _675  and  _678
REMARK  273  A    between atoms: _678  and  _679
REMARK  274  A    between atoms: _679  and  _680
REMARK  275  A    between atoms: _680  and  _681
REMARK  276  A    between atoms: _690  and  _692
REMARK  277  A    between atoms: _692  and  _693
REMARK  278  A    between atoms: _692  and  _695
REMARK  279  A    between atoms: _695  and  _696
REMARK  280  A    between atoms: _699  and  _701
REMARK  281  A    between atoms: _701  and  _702
REMARK  282  A    between atoms: _701  and  _704
REMARK  283  A    between atoms: _704  and  _705
REMARK  284  A    between atoms: _705  and  _706
REMARK  285  A    between atoms: _706  and  _707
REMARK  286  A    between atoms: _716  and  _718
REMARK  287  A    between atoms: _718  and  _719
REMARK  288  A    between atoms: _722  and  _724
REMARK  289  A    between atoms: _724  and  _725
REMARK  290  A    between atoms: _724  and  _727
REMARK  291  A    between atoms: _727  and  _728
REMARK  292  A    between atoms: _733  and  _734
REMARK  293  A    between atoms: _736  and  _738
REMARK  294  A    between atoms: _738  and  _739
REMARK  295  A    between atoms: _738  and  _741
REMARK  296  A    between atoms: _741  and  _742
REMARK  297  A    between atoms: _745  and  _747
REMARK  298  A    between atoms: _747  and  _748
REMARK  299  A    between atoms: _747  and  _750
REMARK  300  A    between atoms: _750  and  _751
REMARK  301  A    between atoms: _754  and  _756
REMARK  302  A    between atoms: _756  and  _757
REMARK  303  A    between atoms: _756  and  _759
REMARK  304  A    between atoms: _761  and  _763
REMARK  305  A    between atoms: _763  and  _764
REMARK  306  A    between atoms: _763  and  _766
REMARK  307  A    between atoms: _769  and  _771
REMARK  308  A    between atoms: _771  and  _772
REMARK  309  A    between atoms: _771  and  _774
REMARK  310  A    between atoms: _774  and  _775
REMARK  311  A    between atoms: _775  and  _776
REMARK  312  A    between atoms: _779  and  _781
REMARK  313  A    between atoms: _781  and  _782
REMARK  314  A    between atoms: _781  and  _784
REMARK  315  A    between atoms: _784  and  _785
REMARK  316  A    between atoms: _795  and  _797
REMARK  317  A    between atoms: _797  and  _798
REMARK  318  A    between atoms: _797  and  _800
REMARK  319  A    between atoms: _800  and  _801
REMARK  320  A    between atoms: _804  and  _806
REMARK  321  A    between atoms: _806  and  _807
REMARK  322  A    between atoms: _806  and  _809
REMARK  323  A    between atoms: _809  and  _810
REMARK  324  A    between atoms: _810  and  _811
REMARK  325  A    between atoms: _811  and  _812
REMARK  326  A    between atoms: _821  and  _823
REMARK  327  A    between atoms: _823  and  _824
REMARK  328  A    between atoms: _823  and  _826
REMARK  329  A    between atoms: _826  and  _827
REMARK  330  A    between atoms: _832  and  _833
REMARK                            x       y       z     vdW  Elec       q    Type
REMARK                         _______ _______ _______ _____ _____    ______ ____
ROOT
ATOM      1  O   HOH     1      47.010  64.335   2.323  0.00  0.00    +0.000 OA
ENDROOT
TORSDOF 0
REMARK  Name = ../refined-set-2016/1fzm/1fzm_pocket.pdb
REMARK  330 active torsions:
REMARK  status: ('A' for Active; 'I' for Inactive)
REMARK    1  A    between atoms: _1  and  _3
REMARK    2  A    between atoms: _3  and  _4
REMARK    3  A    between atoms: _3  and  _6
REMARK    4  A    between atoms: _6  and  _7
REMARK    5  A    between atoms: _10  and  _12
REMARK    6  A    between atoms: _12  and  _13
REMARK    7  A    between atoms: _12  and  _15
REMARK    8  A    between atoms: _15  and  _16
REMARK    9  A    between atoms: _16  and  _17
REMARK   10  A    between atoms: _17  and  _18
REMARK   11  A    between atoms: _27  and  _29
REMARK   12  A    between atoms: _29  and  _30
REMARK   13  A    between atoms: _29  and  _32
REMARK   14  A    between atoms: _32  and  _33
REMARK   15  A    between atoms: _38  and  _39
REMARK   16  A    between atoms: _41  and  _43
REMARK   17  A    between atoms: _43  and  _44
REMARK   18  A    between atoms: _43  and  _46
REMARK   19  A    between atoms: _46  and  _47
REMARK   20  A    between atoms: _53  and  _55
REMARK   21  A    between atoms: _55  and  _56
REMARK   22  A    between atoms: _55  and  _58
REMARK   23  A    between atoms: _61  and  _63
REMARK   24  A    between atoms: _63  and  _64
REMARK   25  A    between atoms: _63  and  _66
REMARK   26  A    between atoms: _66  and  _67
REMARK   27  A    between atoms: _70  and  _72
REMARK   28  A    between atoms: _72  and  _73
REMARK   29  A    between atoms: _72  and  _75
REMARK   30  A    between atoms: _75  and  _76
REMARK   31  A    between atoms: _82  and  _84
REMARK   32  A    between atoms: _84  and  _85
REMARK   33  A    between atoms: _84  and  _87
REMARK   34  A    between atoms: _87  and  _88
REMARK   35  A    between atoms: _90  and  _92
REMARK   36  A    between atoms: _92  and  _93
REMARK   37  A    between atoms: _92  and  _95
REMARK   38  A    between atoms: _98  and  _100
REMARK   39  A    between atoms: _100  and  _101
REMARK   40  A    between atoms: _100  and  _103
REMARK   41  A    between atoms: _103  and  _104
REMARK   42  A    between atoms: _110  and  _112
REMARK   43  A    between atoms: _112  and  _113
REMARK   44  A    between atoms: _112  and  _115
REMARK   45  A    between atoms: _118  and  _120
REMARK   46  A    between atoms: _120  and  _121
REMARK   47  A    between atoms: _120  and  _123
REMARK   48  A    between atoms: _123  and  _124
REMARK   49  A    between atoms: _129  and  _130
REMARK   50  A    between atoms: _132  and  _134
REMARK   51  A    between atoms: _134  and  _135
REMARK   52  A    between atoms: _134  and  _137
REMARK   53  A    between atoms: _137  and  _138
REMARK   54  A    between atoms: _138  and  _139
REMARK   55  A    between atoms: _141  and  _143
REMARK   56  A    between atoms: _143  and  _144
REMARK   57  A    between atoms: _143  and  _146
REMARK   58  A    between atoms: _146  and  _147
REMARK   59  A    between atoms: _147  and  _148
REMARK   60  A    between atoms: _151  and  _153
REMARK   61  A    between atoms: _153  and  _154
REMARK   62  A    between atoms: _156  and  _158
REMARK   63  A    between atoms: _158  and  _159
REMARK   64  A    between atoms: _158  and  _161
REMARK   65  A    between atoms: _161  and  _162
REMARK   66  A    between atoms: _162  and  _163
REMARK   67  A    between atoms: _166  and  _168
REMARK   68  A    between atoms: _168  and  _169
REMARK   69  A    between atoms: _168  and  _171
REMARK   70  A    between atoms: _171  and  _172
REMARK   71  A    between atoms: _177  and  _178
REMARK   72  A    between atoms: _180  and  _182
REMARK   73  A    between atoms: _182  and  _183
REMARK   74  A    between atoms: _182  and  _185
REMARK   75  A    between atoms: _185  and  _186
REMARK   76  A    between atoms: _196  and  _198
REMARK   77  A    between atoms: _198  and  _199
REMARK   78  A    between atoms: _198  and  _201
REMARK   79  A    between atoms: _201  and  _202
REMARK   80  A    between atoms: _202  and  _203
REMARK   81  A    between atoms: _203  and  _204
REMARK   82  A    between atoms: _213  and  _215
REMARK   83  A    between atoms: _215  and  _216
REMARK   84  A    between atoms: _215  and  _218
REMARK   85  A    between atoms: _218  and  _219
REMARK   86  A    between atoms: _219  and  _220
REMARK   87  A    between atoms: _223  and  _225
REMARK   88  A    between atoms: _225  and  _226
REMARK   89  A    between atoms: _225  and  _228
REMARK   90  A    between atoms: _228  and  _229
REMARK   91  A    between atoms: _229  and  _230
REMARK   92  A    between atoms: _235  and  _237
REMARK   93  A    between atoms: _237  and  _238
REMARK   94  A    between atoms: _237  and  _240
REMARK   95  A    between atoms: _240  and  _241
REMARK   96  A    between atoms: _241  and  _242
REMARK   97  A    between atoms: _242  and  _243
REMARK   98  A    between atoms: _243  and  _244
REMARK   99  A    between atoms: _248  and  _250
REMARK  100  A    between atoms: _250  and  _251
REMARK  101  A    between atoms: _254  and  _256
REMARK  102  A    between atoms: _256  and  _257
REMARK  103  A    between atoms: _259  and  _261
REMARK  104  A    between atoms: _261  and  _262
REMARK  105  A    between atoms: _261  and  _264
REMARK  106  A    between atoms: _264  and  _265
REMARK  107  A    between atoms: _270  and  _272
REMARK  108  A    between atoms: _272  and  _273
REMARK  109  A    between atoms: _272  and  _275
REMARK  110  A    between atoms: _275  and  _276
REMARK  111  A    between atoms: _276  and  _277
REMARK  112  A    between atoms: _280  and  _282
REMARK  113  A    between atoms: _282  and  _283
REMARK  114  A    between atoms: _282  and  _285
REMARK  115  A    between atoms: _285  and  _286
REMARK  116  A    between atoms: _288  and  _290
REMARK  117  A    between atoms: _290  and  _291
REMARK  118  A    between atoms: _290  and  _293
REMARK  119  A    between atoms: _293  and  _294
REMARK  120  A    between atoms: _300  and  _302
REMARK  121  A    between atoms: _302  and  _303
REMARK  122  A    between atoms: _302  and  _305
REMARK  123  A    between atoms: _308  and  _310
REMARK  124  A    between atoms: _310  and  _311
REMARK  125  A    between atoms: _310  and  _313
REMARK  126  A    between atoms: _313  and  _314
REMARK  127  A    between atoms: _317  and  _319
REMARK  128  A    between atoms: _319  and  _320
REMARK  129  A    between atoms: _319  and  _322
REMARK  130  A    between atoms: _322  and  _323
REMARK  131  A    between atoms: _326  and  _328
REMARK  132  A    between atoms: _328  and  _329
REMARK  133  A    between atoms: _328  and  _331
REMARK  134  A    between atoms: _331  and  _332
REMARK  135  A    between atoms: _335  and  _337
REMARK  136  A    between atoms: _337  and  _338
REMARK  137  A    between atoms: _337  and  _340
REMARK  138  A    between atoms: _340  and  _341
REMARK  139  A    between atoms: _344  and  _346
REMARK  140  A    between atoms: _346  and  _347
REMARK  141  A    between atoms: _346  and  _349
REMARK  142  A    between atoms: _349  and  _350
REMARK  143  A    between atoms: _355  and  _356
REMARK  144  A    between atoms: _358  and  _360
REMARK  145  A    between atoms: _360  and  _361
REMARK  146  A    between atoms: _360  and  _363
REMARK  147  A    between atoms: _363  and  _364
REMARK  148  A    between atoms: _369  and  _370
REMARK  149  A    between atoms: _372  and  _374
REMARK  150  A    between atoms: _374  and  _375
REMARK  151  A    between atoms: _374  and  _377
REMARK  152  A    between atoms: _377  and  _378
REMARK  153  A    between atoms: _381  and  _383
REMARK  154  A    between atoms: _383  and  _384
REMARK  155  A    between atoms: _383  and  _386
REMARK  156  A    between atoms: _386  and  _387
REMARK  157  A    between atoms: _387  and  _388
REMARK  158  A    between atoms: _393  and  _395
REMARK  159  A    between atoms: _395  and  _396
REMARK  160  A    between atoms: _395  and  _398
REMARK  161  A    between atoms: _401  and  _403
REMARK  162  A    between atoms: _403  and  _404
REMARK  163  A    between atoms: _403  and  _406
REMARK  164  A    between atoms: _406  and  _407
REMARK  165  A    between atoms: _410  and  _412
REMARK  166  A    between atoms: _412  and  _413
REMARK  167  A    between atoms: _412  and  _415
REMARK  168  A    between atoms: _415  and  _416
REMARK  169  A    between atoms: _418  and  _420
REMARK  170  A    between atoms: _420  and  _421
REMARK  171  A    between atoms: _423  and  _425
REMARK  172  A    between atoms: _425  and  _426
REMARK  173  A    between atoms: _425  and  _428
REMARK  174  A    between atoms: _428  and  _429
REMARK  175  A    between atoms: _434  and  _435
REMARK  176  A    between atoms: _437  and  _439
REMARK  177  A    between atoms: _439  and  _440
REMARK  178  A    between atoms: _439  and  _442
REMARK  179  A    between atoms: _442  and  _443
REMARK  180  A    between atoms: _443  and  _444
REMARK  181  A    between atoms: _449  and  _451
REMARK  182  A    between atoms: _451  and  _452
REMARK  183  A    between atoms: _451  and  _454
REMARK  184  A    between atoms: _454  and  _455
REMARK  185  A    between atoms: _455  and  _456
REMARK  186  A    between atoms: _461  and  _463
REMARK  187  A    between atoms: _463  and  _464
REMARK  188  A    between atoms: _463  and  _466
REMARK  189  A    between atoms: _466  and  _467
REMARK  190  A    between atoms: _472  and  _473
REMARK  191  A    between atoms: _475  and  _477
REMARK  192  A    between atoms: _477  and  _478
REMARK  193  A    between atoms: _481  and  _483
REMARK  194  A    between atoms: _483  and  _484
REMARK  195  A    between atoms: _483  and  _486
REMARK  196  A    between atoms: _486  and  _487
REMARK  197  A    between atoms: _492  and  _493
REMARK  198  A    between atoms: _495  and  _497
REMARK  199  A    between atoms: _497  and  _498
REMARK  200  A    between atoms: _497  and  _500
REMARK  201  A    between atoms: _500  and  _501
REMARK  202  A    between atoms: _506  and  _507
REMARK  203  A    between atoms: _509  and  _511
REMARK  204  A    between atoms: _511  and  _512
REMARK  205  A    between atoms: _511  and  _514
REMARK  206  A    between atoms: _514  and  _515
REMARK  207  A    between atoms: _518  and  _520
REMARK  208  A    between atoms: _520  and  _521
REMARK  209  A    between atoms: _520  and  _523
REMARK  210  A    between atoms: _523  and  _524
REMARK  211  A    between atoms: _534  and  _536
REMARK  212  A    between atoms: _536  and  _537
REMARK  213  A    between atoms: _540  and  _542
REMARK  214  A    between atoms: _542  and  _543
REMARK  215  A    between atoms: _546  and  _548
REMARK  216  A    between atoms: _548  and  _549
REMARK  217  A    between atoms: _548  and  _551
REMARK  218  A    between atoms: _551  and  _552
REMARK  219  A    between atoms: _555  and  _557
REMARK  220  A    between atoms: _557  and  _558
REMARK  221  A    between atoms: _557  and  _560
REMARK  222  A    between atoms: _560  and  _561
REMARK  223  A    between atoms: _564  and  _566
REMARK  224  A    between atoms: _566  and  _567
REMARK  225  A    between atoms: _566  and  _569
REMARK  226  A    between atoms: _569  and  _570
REMARK  227  A    between atoms: _573  and  _575
REMARK  228  A    between atoms: _575  and  _576
REMARK  229  A    between atoms: _575  and  _578
REMARK  230  A    between atoms: _578  and  _579
REMARK  231  A    between atoms: _579  and  _580
REMARK  232  A    between atoms: _580  and  _581
REMARK  233  A    between atoms: _581  and  _582
REMARK  234  A    between atoms: _586  and  _588
REMARK  235  A    between atoms: _588  and  _589
REMARK  236  A    between atoms: _588  and  _591
REMARK  237  A    between atoms: _591  and  _592
REMARK  238  A    between atoms: _597  and  _599
REMARK  239  A    between atoms: _599  and  _600
REMARK  240  A    between atoms: _599  and  _602
REMARK  241  A    between atoms: _602  and  _603
REMARK  242  A    between atoms: _603  and  _604
REMARK  243  A    between atoms: _604  and  _605
REMARK  244  A    between atoms: _605  and  _606
REMARK  245  A    between atoms: _610  and  _612
REMARK  246  A    between atoms: _612  and  _613
REMARK  247  A    between atoms: _612  and  _615
REMARK  248  A    between atoms: _615  and  _616
REMARK  249  A    between atoms: _626  and  _628
REMARK  250  A    between atoms: _628  and  _629
REMARK  251  A    between atoms: _628  and  _631
REMARK  252  A    between atoms: _631  and  _632
REMARK  253  A    between atoms: _632  and  _633
REMARK  254  A    between atoms: _636  and  _638
REMARK  255  A    between atoms: _638  and  _639
REMARK  256  A    between atoms: _642  and  _644
REMARK  257  A    between atoms: _644  and  _645
REMARK  258  A    between atoms: _647  and  _649
REMARK  259  A    between atoms: _649  and  _650
REMARK  260  A    between atoms: _649  and  _652
REMARK  261  A    between atoms: _652  and  _653
REMARK  262  A    between atoms: _653  and  _654
REMARK  263  A    between atoms: _657  and  _659
REMARK  264  A    between atoms: _659  and  _660
REMARK  265  A    between atoms: _663  and  _665
REMARK  266  A    between atoms: _665  and  _666
REMARK  267  A    between atoms: _665  and  _668
REMARK  268  A    between atoms: _668  and  _669
REMARK  269  A    between atoms: _669  and  _670
REMARK  270  A    between atoms: _673  and  _675
REMARK  271  A    between atoms: _675  and  _676
REMARK  272  A    between atoms: _675  and  _678
REMARK  273  A    between atoms: _678  and  _679
REMARK  274  A    between atoms: _679  and  _680
REMARK  275  A    between atoms: _680  and  _681
REMARK  276  A    between atoms: _690  and  _692
REMARK  277  A    between atoms: _692  and  _693
REMARK  278  A    between atoms: _692  and  _695
REMARK  279  A    between atoms: _695  and  _696
REMARK  280  A    between atoms: _699  and  _701
REMARK  281  A    between atoms: _701  and  _702
REMARK  282  A    between atoms: _701  and  _704
REMARK  283  A    between atoms: _704  and  _705
REMARK  284  A    between atoms: _705  and  _706
REMARK  285  A    between atoms: _706  and  _707
REMARK  286  A    between atoms: _716  and  _718
REMARK  287  A    between atoms: _718  and  _719
REMARK  288  A    between atoms: _722  and  _724
REMARK  289  A    between atoms: _724  and  _725
REMARK  290  A    between atoms: _724  and  _727
REMARK  291  A    between atoms: _727  and  _728
REMARK  292  A    between atoms: _733  and  _734
REMARK  293  A    between atoms: _736  and  _738
REMARK  294  A    between atoms: _738  and  _739
REMARK  295  A    between atoms: _738  and  _741
REMARK  296  A    between atoms: _741  and  _742
REMARK  297  A    between atoms: _745  and  _747
REMARK  298  A    between atoms: _747  and  _748
REMARK  299  A    between atoms: _747  and  _750
REMARK  300  A    between atoms: _750  and  _751
REMARK  301  A    between atoms: _754  and  _756
REMARK  302  A    between atoms: _756  and  _757
REMARK  303  A    between atoms: _756  and  _759
REMARK  304  A    between atoms: _761  and  _763
REMARK  305  A    between atoms: _763  and  _764
REMARK  306  A    between atoms: _763  and  _766
REMARK  307  A    between atoms: _769  and  _771
REMARK  308  A    between atoms: _771  and  _772
REMARK  309  A    between atoms: _771  and  _774
REMARK  310  A    between atoms: _774  and  _775
REMARK  311  A    between atoms: _775  and  _776
REMARK  312  A    between atoms: _779  and  _781
REMARK  313  A    between atoms: _781  and  _782
REMARK  314  A    between atoms: _781  and  _784
REMARK  315  A    between atoms: _784  and  _785
REMARK  316  A    between atoms: _795  and  _797
REMARK  317  A    between atoms: _797  and  _798
REMARK  318  A    between atoms: _797  and  _800
REMARK  319  A    between atoms: _800  and  _801
REMARK  320  A    between atoms: _804  and  _806
REMARK  321  A    between atoms: _806  and  _807
REMARK  322  A    between atoms: _806  and  _809
REMARK  323  A    between atoms: _809  and  _810
REMARK  324  A    between atoms: _810  and  _811
REMARK  325  A    between atoms: _811  and  _812
REMARK  326  A    between atoms: _821  and  _823
REMARK  327  A    between atoms: _823  and  _824
REMARK  328  A    between atoms: _823  and  _826
REMARK  329  A    between atoms: _826  and  _827
REMARK  330  A    between atoms: _832  and  _833
REMARK                            x       y       z     vdW  Elec       q    Type
REMARK                         _______ _______ _______ _____ _____    ______ ____
ROOT
ATOM      1  O   HOH     1      51.586  64.804  -2.377  0.00  0.00    +0.000 OA
ENDROOT
TORSDOF 0
REMARK  Name = ../refined-set-2016/1fzm/1fzm_pocket.pdb
REMARK  330 active torsions:
REMARK  status: ('A' for Active; 'I' for Inactive)
REMARK    1  A    between atoms: _1  and  _3
REMARK    2  A    between atoms: _3  and  _4
REMARK    3  A    between atoms: _3  and  _6
REMARK    4  A    between atoms: _6  and  _7
REMARK    5  A    between atoms: _10  and  _12
REMARK    6  A    between atoms: _12  and  _13
REMARK    7  A    between atoms: _12  and  _15
REMARK    8  A    between atoms: _15  and  _16
REMARK    9  A    between atoms: _16  and  _17
REMARK   10  A    between atoms: _17  and  _18
REMARK   11  A    between atoms: _27  and  _29
REMARK   12  A    between atoms: _29  and  _30
REMARK   13  A    between atoms: _29  and  _32
REMARK   14  A    between atoms: _32  and  _33
REMARK   15  A    between atoms: _38  and  _39
REMARK   16  A    between atoms: _41  and  _43
REMARK   17  A    between atoms: _43  and  _44
REMARK   18  A    between atoms: _43  and  _46
REMARK   19  A    between atoms: _46  and  _47
REMARK   20  A    between atoms: _53  and  _55
REMARK   21  A    between atoms: _55  and  _56
REMARK   22  A    between atoms: _55  and  _58
REMARK   23  A    between atoms: _61  and  _63
REMARK   24  A    between atoms: _63  and  _64
REMARK   25  A    between atoms: _63  and  _66
REMARK   26  A    between atoms: _66  and  _67
REMARK   27  A    between atoms: _70  and  _72
REMARK   28  A    between atoms: _72  and  _73
REMARK   29  A    between atoms: _72  and  _75
REMARK   30  A    between atoms: _75  and  _76
REMARK   31  A    between atoms: _82  and  _84
REMARK   32  A    between atoms: _84  and  _85
REMARK   33  A    between atoms: _84  and  _87
REMARK   34  A    between atoms: _87  and  _88
REMARK   35  A    between atoms: _90  and  _92
REMARK   36  A    between atoms: _92  and  _93
REMARK   37  A    between atoms: _92  and  _95
REMARK   38  A    between atoms: _98  and  _100
REMARK   39  A    between atoms: _100  and  _101
REMARK   40  A    between atoms: _100  and  _103
REMARK   41  A    between atoms: _103  and  _104
REMARK   42  A    between atoms: _110  and  _112
REMARK   43  A    between atoms: _112  and  _113
REMARK   44  A    between atoms: _112  and  _115
REMARK   45  A    between atoms: _118  and  _120
REMARK   46  A    between atoms: _120  and  _121
REMARK   47  A    between atoms: _120  and  _123
REMARK   48  A    between atoms: _123  and  _124
REMARK   49  A    between atoms: _129  and  _130
REMARK   50  A    between atoms: _132  and  _134
REMARK   51  A    between atoms: _134  and  _135
REMARK   52  A    between atoms: _134  and  _137
REMARK   53  A    between atoms: _137  and  _138
REMARK   54  A    between atoms: _138  and  _139
REMARK   55  A    between atoms: _141  and  _143
REMARK   56  A    between atoms: _143  and  _144
REMARK   57  A    between atoms: _143  and  _146
REMARK   58  A    between atoms: _146  and  _147
REMARK   59  A    between atoms: _147  and  _148
REMARK   60  A    between atoms: _151  and  _153
REMARK   61  A    between atoms: _153  and  _154
REMARK   62  A    between atoms: _156  and  _158
REMARK   63  A    between atoms: _158  and  _159
REMARK   64  A    between atoms: _158  and  _161
REMARK   65  A    between atoms: _161  and  _162
REMARK   66  A    between atoms: _162  and  _163
REMARK   67  A    between atoms: _166  and  _168
REMARK   68  A    between atoms: _168  and  _169
REMARK   69  A    between atoms: _168  and  _171
REMARK   70  A    between atoms: _171  and  _172
REMARK   71  A    between atoms: _177  and  _178
REMARK   72  A    between atoms: _180  and  _182
REMARK   73  A    between atoms: _182  and  _183
REMARK   74  A    between atoms: _182  and  _185
REMARK   75  A    between atoms: _185  and  _186
REMARK   76  A    between atoms: _196  and  _198
REMARK   77  A    between atoms: _198  and  _199
REMARK   78  A    between atoms: _198  and  _201
REMARK   79  A    between atoms: _201  and  _202
REMARK   80  A    between atoms: _202  and  _203
REMARK   81  A    between atoms: _203  and  _204
REMARK   82  A    between atoms: _213  and  _215
REMARK   83  A    between atoms: _215  and  _216
REMARK   84  A    between atoms: _215  and  _218
REMARK   85  A    between atoms: _218  and  _219
REMARK   86  A    between atoms: _219  and  _220
REMARK   87  A    between atoms: _223  and  _225
REMARK   88  A    between atoms: _225  and  _226
REMARK   89  A    between atoms: _225  and  _228
REMARK   90  A    between atoms: _228  and  _229
REMARK   91  A    between atoms: _229  and  _230
REMARK   92  A    between atoms: _235  and  _237
REMARK   93  A    between atoms: _237  and  _238
REMARK   94  A    between atoms: _237  and  _240
REMARK   95  A    between atoms: _240  and  _241
REMARK   96  A    between atoms: _241  and  _242
REMARK   97  A    between atoms: _242  and  _243
REMARK   98  A    between atoms: _243  and  _244
REMARK   99  A    between atoms: _248  and  _250
REMARK  100  A    between atoms: _250  and  _251
REMARK  101  A    between atoms: _254  and  _256
REMARK  102  A    between atoms: _256  and  _257
REMARK  103  A    between atoms: _259  and  _261
REMARK  104  A    between atoms: _261  and  _262
REMARK  105  A    between atoms: _261  and  _264
REMARK  106  A    between atoms: _264  and  _265
REMARK  107  A    between atoms: _270  and  _272
REMARK  108  A    between atoms: _272  and  _273
REMARK  109  A    between atoms: _272  and  _275
REMARK  110  A    between atoms: _275  and  _276
REMARK  111  A    between atoms: _276  and  _277
REMARK  112  A    between atoms: _280  and  _282
REMARK  113  A    between atoms: _282  and  _283
REMARK  114  A    between atoms: _282  and  _285
REMARK  115  A    between atoms: _285  and  _286
REMARK  116  A    between atoms: _288  and  _290
REMARK  117  A    between atoms: _290  and  _291
REMARK  118  A    between atoms: _290  and  _293
REMARK  119  A    between atoms: _293  and  _294
REMARK  120  A    between atoms: _300  and  _302
REMARK  121  A    between atoms: _302  and  _303
REMARK  122  A    between atoms: _302  and  _305
REMARK  123  A    between atoms: _308  and  _310
REMARK  124  A    between atoms: _310  and  _311
REMARK  125  A    between atoms: _310  and  _313
REMARK  126  A    between atoms: _313  and  _314
REMARK  127  A    between atoms: _317  and  _319
REMARK  128  A    between atoms: _319  and  _320
REMARK  129  A    between atoms: _319  and  _322
REMARK  130  A    between atoms: _322  and  _323
REMARK  131  A    between atoms: _326  and  _328
REMARK  132  A    between atoms: _328  and  _329
REMARK  133  A    between atoms: _328  and  _331
REMARK  134  A    between atoms: _331  and  _332
REMARK  135  A    between atoms: _335  and  _337
REMARK  136  A    between atoms: _337  and  _338
REMARK  137  A    between atoms: _337  and  _340
REMARK  138  A    between atoms: _340  and  _341
REMARK  139  A    between atoms: _344  and  _346
REMARK  140  A    between atoms: _346  and  _347
REMARK  141  A    between atoms: _346  and  _349
REMARK  142  A    between atoms: _349  and  _350
REMARK  143  A    between atoms: _355  and  _356
REMARK  144  A    between atoms: _358  and  _360
REMARK  145  A    between atoms: _360  and  _361
REMARK  146  A    between atoms: _360  and  _363
REMARK  147  A    between atoms: _363  and  _364
REMARK  148  A    between atoms: _369  and  _370
REMARK  149  A    between atoms: _372  and  _374
REMARK  150  A    between atoms: _374  and  _375
REMARK  151  A    between atoms: _374  and  _377
REMARK  152  A    between atoms: _377  and  _378
REMARK  153  A    between atoms: _381  and  _383
REMARK  154  A    between atoms: _383  and  _384
REMARK  155  A    between atoms: _383  and  _386
REMARK  156  A    between atoms: _386  and  _387
REMARK  157  A    between atoms: _387  and  _388
REMARK  158  A    between atoms: _393  and  _395
REMARK  159  A    between atoms: _395  and  _396
REMARK  160  A    between atoms: _395  and  _398
REMARK  161  A    between atoms: _401  and  _403
REMARK  162  A    between atoms: _403  and  _404
REMARK  163  A    between atoms: _403  and  _406
REMARK  164  A    between atoms: _406  and  _407
REMARK  165  A    between atoms: _410  and  _412
REMARK  166  A    between atoms: _412  and  _413
REMARK  167  A    between atoms: _412  and  _415
REMARK  168  A    between atoms: _415  and  _416
REMARK  169  A    between atoms: _418  and  _420
REMARK  170  A    between atoms: _420  and  _421
REMARK  171  A    between atoms: _423  and  _425
REMARK  172  A    between atoms: _425  and  _426
REMARK  173  A    between atoms: _425  and  _428
REMARK  174  A    between atoms: _428  and  _429
REMARK  175  A    between atoms: _434  and  _435
REMARK  176  A    between atoms: _437  and  _439
REMARK  177  A    between atoms: _439  and  _440
REMARK  178  A    between atoms: _439  and  _442
REMARK  179  A    between atoms: _442  and  _443
REMARK  180  A    between atoms: _443  and  _444
REMARK  181  A    between atoms: _449  and  _451
REMARK  182  A    between atoms: _451  and  _452
REMARK  183  A    between atoms: _451  and  _454
REMARK  184  A    between atoms: _454  and  _455
REMARK  185  A    between atoms: _455  and  _456
REMARK  186  A    between atoms: _461  and  _463
REMARK  187  A    between atoms: _463  and  _464
REMARK  188  A    between atoms: _463  and  _466
REMARK  189  A    between atoms: _466  and  _467
REMARK  190  A    between atoms: _472  and  _473
REMARK  191  A    between atoms: _475  and  _477
REMARK  192  A    between atoms: _477  and  _478
REMARK  193  A    between atoms: _481  and  _483
REMARK  194  A    between atoms: _483  and  _484
REMARK  195  A    between atoms: _483  and  _486
REMARK  196  A    between atoms: _486  and  _487
REMARK  197  A    between atoms: _492  and  _493
REMARK  198  A    between atoms: _495  and  _497
REMARK  199  A    between atoms: _497  and  _498
REMARK  200  A    between atoms: _497  and  _500
REMARK  201  A    between atoms: _500  and  _501
REMARK  202  A    between atoms: _506  and  _507
REMARK  203  A    between atoms: _509  and  _511
REMARK  204  A    between atoms: _511  and  _512
REMARK  205  A    between atoms: _511  and  _514
REMARK  206  A    between atoms: _514  and  _515
REMARK  207  A    between atoms: _518  and  _520
REMARK  208  A    between atoms: _520  and  _521
REMARK  209  A    between atoms: _520  and  _523
REMARK  210  A    between atoms: _523  and  _524
REMARK  211  A    between atoms: _534  and  _536
REMARK  212  A    between atoms: _536  and  _537
REMARK  213  A    between atoms: _540  and  _542
REMARK  214  A    between atoms: _542  and  _543
REMARK  215  A    between atoms: _546  and  _548
REMARK  216  A    between atoms: _548  and  _549
REMARK  217  A    between atoms: _548  and  _551
REMARK  218  A    between atoms: _551  and  _552
REMARK  219  A    between atoms: _555  and  _557
REMARK  220  A    between atoms: _557  and  _558
REMARK  221  A    between atoms: _557  and  _560
REMARK  222  A    between atoms: _560  and  _561
REMARK  223  A    between atoms: _564  and  _566
REMARK  224  A    between atoms: _566  and  _567
REMARK  225  A    between atoms: _566  and  _569
REMARK  226  A    between atoms: _569  and  _570
REMARK  227  A    between atoms: _573  and  _575
REMARK  228  A    between atoms: _575  and  _576
REMARK  229  A    between atoms: _575  and  _578
REMARK  230  A    between atoms: _578  and  _579
REMARK  231  A    between atoms: _579  and  _580
REMARK  232  A    between atoms: _580  and  _581
REMARK  233  A    between atoms: _581  and  _582
REMARK  234  A    between atoms: _586  and  _588
REMARK  235  A    between atoms: _588  and  _589
REMARK  236  A    between atoms: _588  and  _591
REMARK  237  A    between atoms: _591  and  _592
REMARK  238  A    between atoms: _597  and  _599
REMARK  239  A    between atoms: _599  and  _600
REMARK  240  A    between atoms: _599  and  _602
REMARK  241  A    between atoms: _602  and  _603
REMARK  242  A    between atoms: _603  and  _604
REMARK  243  A    between atoms: _604  and  _605
REMARK  244  A    between atoms: _605  and  _606
REMARK  245  A    between atoms: _610  and  _612
REMARK  246  A    between atoms: _612  and  _613
REMARK  247  A    between atoms: _612  and  _615
REMARK  248  A    between atoms: _615  and  _616
REMARK  249  A    between atoms: _626  and  _628
REMARK  250  A    between atoms: _628  and  _629
REMARK  251  A    between atoms: _628  and  _631
REMARK  252  A    between atoms: _631  and  _632
REMARK  253  A    between atoms: _632  and  _633
REMARK  254  A    between atoms: _636  and  _638
REMARK  255  A    between atoms: _638  and  _639
REMARK  256  A    between atoms: _642  and  _644
REMARK  257  A    between atoms: _644  and  _645
REMARK  258  A    between atoms: _647  and  _649
REMARK  259  A    between atoms: _649  and  _650
REMARK  260  A    between atoms: _649  and  _652
REMARK  261  A    between atoms: _652  and  _653
REMARK  262  A    between atoms: _653  and  _654
REMARK  263  A    between atoms: _657  and  _659
REMARK  264  A    between atoms: _659  and  _660
REMARK  265  A    between atoms: _663  and  _665
REMARK  266  A    between atoms: _665  and  _666
REMARK  267  A    between atoms: _665  and  _668
REMARK  268  A    between atoms: _668  and  _669
REMARK  269  A    between atoms: _669  and  _670
REMARK  270  A    between atoms: _673  and  _675
REMARK  271  A    between atoms: _675  and  _676
REMARK  272  A    between atoms: _675  and  _678
REMARK  273  A    between atoms: _678  and  _679
REMARK  274  A    between atoms: _679  and  _680
REMARK  275  A    between atoms: _680  and  _681
REMARK  276  A    between atoms: _690  and  _692
REMARK  277  A    between atoms: _692  and  _693
REMARK  278  A    between atoms: _692  and  _695
REMARK  279  A    between atoms: _695  and  _696
REMARK  280  A    between atoms: _699  and  _701
REMARK  281  A    between atoms: _701  and  _702
REMARK  282  A    between atoms: _701  and  _704
REMARK  283  A    between atoms: _704  and  _705
REMARK  284  A    between atoms: _705  and  _706
REMARK  285  A    between atoms: _706  and  _707
REMARK  286  A    between atoms: _716  and  _718
REMARK  287  A    between atoms: _718  and  _719
REMARK  288  A    between atoms: _722  and  _724
REMARK  289  A    between atoms: _724  and  _725
REMARK  290  A    between atoms: _724  and  _727
REMARK  291  A    between atoms: _727  and  _728
REMARK  292  A    between atoms: _733  and  _734
REMARK  293  A    between atoms: _736  and  _738
REMARK  294  A    between atoms: _738  and  _739
REMARK  295  A    between atoms: _738  and  _741
REMARK  296  A    between atoms: _741  and  _742
REMARK  297  A    between atoms: _745  and  _747
REMARK  298  A    between atoms: _747  and  _748
REMARK  299  A    between atoms: _747  and  _750
REMARK  300  A    between atoms: _750  and  _751
REMARK  301  A    between atoms: _754  and  _756
REMARK  302  A    between atoms: _756  and  _757
REMARK  303  A    between atoms: _756  and  _759
REMARK  304  A    between atoms: _761  and  _763
REMARK  305  A    between atoms: _763  and  _764
REMARK  306  A    between atoms: _763  and  _766
REMARK  307  A    between atoms: _769  and  _771
REMARK  308  A    between atoms: _771  and  _772
REMARK  309  A    between atoms: _771  and  _774
REMARK  310  A    between atoms: _774  and  _775
REMARK  311  A    between atoms: _775  and  _776
REMARK  312  A    between atoms: _779  and  _781
REMARK  313  A    between atoms: _781  and  _782
REMARK  314  A    between atoms: _781  and  _784
REMARK  315  A    between atoms: _784  and  _785
REMARK  316  A    between atoms: _795  and  _797
REMARK  317  A    between atoms: _797  and  _798
REMARK  318  A    between atoms: _797  and  _800
REMARK  319  A    between atoms: _800  and  _801
REMARK  320  A    between atoms: _804  and  _806
REMARK  321  A    between atoms: _806  and  _807
REMARK  322  A    between atoms: _806  and  _809
REMARK  323  A    between atoms: _809  and  _810
REMARK  324  A    between atoms: _810  and  _811
REMARK  325  A    between atoms: _811  and  _812
REMARK  326  A    between atoms: _821  and  _823
REMARK  327  A    between atoms: _823  and  _824
REMARK  328  A    between atoms: _823  and  _826
REMARK  329  A    between atoms: _826  and  _827
REMARK  330  A    between atoms: _832  and  _833
REMARK                            x       y       z     vdW  Elec       q    Type
REMARK                         _______ _______ _______ _____ _____    ______ ____
ROOT
ATOM      1  O   HOH     1      54.760  64.866   3.588  0.00  0.00    +0.000 OA
ENDROOT
TORSDOF 0
REMARK  Name = ../refined-set-2016/1fzm/1fzm_pocket.pdb
REMARK  330 active torsions:
REMARK  status: ('A' for Active; 'I' for Inactive)
REMARK    1  A    between atoms: _1  and  _3
REMARK    2  A    between atoms: _3  and  _4
REMARK    3  A    between atoms: _3  and  _6
REMARK    4  A    between atoms: _6  and  _7
REMARK    5  A    between atoms: _10  and  _12
REMARK    6  A    between atoms: _12  and  _13
REMARK    7  A    between atoms: _12  and  _15
REMARK    8  A    between atoms: _15  and  _16
REMARK    9  A    between atoms: _16  and  _17
REMARK   10  A    between atoms: _17  and  _18
REMARK   11  A    between atoms: _27  and  _29
REMARK   12  A    between atoms: _29  and  _30
REMARK   13  A    between atoms: _29  and  _32
REMARK   14  A    between atoms: _32  and  _33
REMARK   15  A    between atoms: _38  and  _39
REMARK   16  A    between atoms: _41  and  _43
REMARK   17  A    between atoms: _43  and  _44
REMARK   18  A    between atoms: _43  and  _46
REMARK   19  A    between atoms: _46  and  _47
REMARK   20  A    between atoms: _53  and  _55
REMARK   21  A    between atoms: _55  and  _56
REMARK   22  A    between atoms: _55  and  _58
REMARK   23  A    between atoms: _61  and  _63
REMARK   24  A    between atoms: _63  and  _64
REMARK   25  A    between atoms: _63  and  _66
REMARK   26  A    between atoms: _66  and  _67
REMARK   27  A    between atoms: _70  and  _72
REMARK   28  A    between atoms: _72  and  _73
REMARK   29  A    between atoms: _72  and  _75
REMARK   30  A    between atoms: _75  and  _76
REMARK   31  A    between atoms: _82  and  _84
REMARK   32  A    between atoms: _84  and  _85
REMARK   33  A    between atoms: _84  and  _87
REMARK   34  A    between atoms: _87  and  _88
REMARK   35  A    between atoms: _90  and  _92
REMARK   36  A    between atoms: _92  and  _93
REMARK   37  A    between atoms: _92  and  _95
REMARK   38  A    between atoms: _98  and  _100
REMARK   39  A    between atoms: _100  and  _101
REMARK   40  A    between atoms: _100  and  _103
REMARK   41  A    between atoms: _103  and  _104
REMARK   42  A    between atoms: _110  and  _112
REMARK   43  A    between atoms: _112  and  _113
REMARK   44  A    between atoms: _112  and  _115
REMARK   45  A    between atoms: _118  and  _120
REMARK   46  A    between atoms: _120  and  _121
REMARK   47  A    between atoms: _120  and  _123
REMARK   48  A    between atoms: _123  and  _124
REMARK   49  A    between atoms: _129  and  _130
REMARK   50  A    between atoms: _132  and  _134
REMARK   51  A    between atoms: _134  and  _135
REMARK   52  A    between atoms: _134  and  _137
REMARK   53  A    between atoms: _137  and  _138
REMARK   54  A    between atoms: _138  and  _139
REMARK   55  A    between atoms: _141  and  _143
REMARK   56  A    between atoms: _143  and  _144
REMARK   57  A    between atoms: _143  and  _146
REMARK   58  A    between atoms: _146  and  _147
REMARK   59  A    between atoms: _147  and  _148
REMARK   60  A    between atoms: _151  and  _153
REMARK   61  A    between atoms: _153  and  _154
REMARK   62  A    between atoms: _156  and  _158
REMARK   63  A    between atoms: _158  and  _159
REMARK   64  A    between atoms: _158  and  _161
REMARK   65  A    between atoms: _161  and  _162
REMARK   66  A    between atoms: _162  and  _163
REMARK   67  A    between atoms: _166  and  _168
REMARK   68  A    between atoms: _168  and  _169
REMARK   69  A    between atoms: _168  and  _171
REMARK   70  A    between atoms: _171  and  _172
REMARK   71  A    between atoms: _177  and  _178
REMARK   72  A    between atoms: _180  and  _182
REMARK   73  A    between atoms: _182  and  _183
REMARK   74  A    between atoms: _182  and  _185
REMARK   75  A    between atoms: _185  and  _186
REMARK   76  A    between atoms: _196  and  _198
REMARK   77  A    between atoms: _198  and  _199
REMARK   78  A    between atoms: _198  and  _201
REMARK   79  A    between atoms: _201  and  _202
REMARK   80  A    between atoms: _202  and  _203
REMARK   81  A    between atoms: _203  and  _204
REMARK   82  A    between atoms: _213  and  _215
REMARK   83  A    between atoms: _215  and  _216
REMARK   84  A    between atoms: _215  and  _218
REMARK   85  A    between atoms: _218  and  _219
REMARK   86  A    between atoms: _219  and  _220
REMARK   87  A    between atoms: _223  and  _225
REMARK   88  A    between atoms: _225  and  _226
REMARK   89  A    between atoms: _225  and  _228
REMARK   90  A    between atoms: _228  and  _229
REMARK   91  A    between atoms: _229  and  _230
REMARK   92  A    between atoms: _235  and  _237
REMARK   93  A    between atoms: _237  and  _238
REMARK   94  A    between atoms: _237  and  _240
REMARK   95  A    between atoms: _240  and  _241
REMARK   96  A    between atoms: _241  and  _242
REMARK   97  A    between atoms: _242  and  _243
REMARK   98  A    between atoms: _243  and  _244
REMARK   99  A    between atoms: _248  and  _250
REMARK  100  A    between atoms: _250  and  _251
REMARK  101  A    between atoms: _254  and  _256
REMARK  102  A    between atoms: _256  and  _257
REMARK  103  A    between atoms: _259  and  _261
REMARK  104  A    between atoms: _261  and  _262
REMARK  105  A    between atoms: _261  and  _264
REMARK  106  A    between atoms: _264  and  _265
REMARK  107  A    between atoms: _270  and  _272
REMARK  108  A    between atoms: _272  and  _273
REMARK  109  A    between atoms: _272  and  _275
REMARK  110  A    between atoms: _275  and  _276
REMARK  111  A    between atoms: _276  and  _277
REMARK  112  A    between atoms: _280  and  _282
REMARK  113  A    between atoms: _282  and  _283
REMARK  114  A    between atoms: _282  and  _285
REMARK  115  A    between atoms: _285  and  _286
REMARK  116  A    between atoms: _288  and  _290
REMARK  117  A    between atoms: _290  and  _291
REMARK  118  A    between atoms: _290  and  _293
REMARK  119  A    between atoms: _293  and  _294
REMARK  120  A    between atoms: _300  and  _302
REMARK  121  A    between atoms: _302  and  _303
REMARK  122  A    between atoms: _302  and  _305
REMARK  123  A    between atoms: _308  and  _310
REMARK  124  A    between atoms: _310  and  _311
REMARK  125  A    between atoms: _310  and  _313
REMARK  126  A    between atoms: _313  and  _314
REMARK  127  A    between atoms: _317  and  _319
REMARK  128  A    between atoms: _319  and  _320
REMARK  129  A    between atoms: _319  and  _322
REMARK  130  A    between atoms: _322  and  _323
REMARK  131  A    between atoms: _326  and  _328
REMARK  132  A    between atoms: _328  and  _329
REMARK  133  A    between atoms: _328  and  _331
REMARK  134  A    between atoms: _331  and  _332
REMARK  135  A    between atoms: _335  and  _337
REMARK  136  A    between atoms: _337  and  _338
REMARK  137  A    between atoms: _337  and  _340
REMARK  138  A    between atoms: _340  and  _341
REMARK  139  A    between atoms: _344  and  _346
REMARK  140  A    between atoms: _346  and  _347
REMARK  141  A    between atoms: _346  and  _349
REMARK  142  A    between atoms: _349  and  _350
REMARK  143  A    between atoms: _355  and  _356
REMARK  144  A    between atoms: _358  and  _360
REMARK  145  A    between atoms: _360  and  _361
REMARK  146  A    between atoms: _360  and  _363
REMARK  147  A    between atoms: _363  and  _364
REMARK  148  A    between atoms: _369  and  _370
REMARK  149  A    between atoms: _372  and  _374
REMARK  150  A    between atoms: _374  and  _375
REMARK  151  A    between atoms: _374  and  _377
REMARK  152  A    between atoms: _377  and  _378
REMARK  153  A    between atoms: _381  and  _383
REMARK  154  A    between atoms: _383  and  _384
REMARK  155  A    between atoms: _383  and  _386
REMARK  156  A    between atoms: _386  and  _387
REMARK  157  A    between atoms: _387  and  _388
REMARK  158  A    between atoms: _393  and  _395
REMARK  159  A    between atoms: _395  and  _396
REMARK  160  A    between atoms: _395  and  _398
REMARK  161  A    between atoms: _401  and  _403
REMARK  162  A    between atoms: _403  and  _404
REMARK  163  A    between atoms: _403  and  _406
REMARK  164  A    between atoms: _406  and  _407
REMARK  165  A    between atoms: _410  and  _412
REMARK  166  A    between atoms: _412  and  _413
REMARK  167  A    between atoms: _412  and  _415
REMARK  168  A    between atoms: _415  and  _416
REMARK  169  A    between atoms: _418  and  _420
REMARK  170  A    between atoms: _420  and  _421
REMARK  171  A    between atoms: _423  and  _425
REMARK  172  A    between atoms: _425  and  _426
REMARK  173  A    between atoms: _425  and  _428
REMARK  174  A    between atoms: _428  and  _429
REMARK  175  A    between atoms: _434  and  _435
REMARK  176  A    between atoms: _437  and  _439
REMARK  177  A    between atoms: _439  and  _440
REMARK  178  A    between atoms: _439  and  _442
REMARK  179  A    between atoms: _442  and  _443
REMARK  180  A    between atoms: _443  and  _444
REMARK  181  A    between atoms: _449  and  _451
REMARK  182  A    between atoms: _451  and  _452
REMARK  183  A    between atoms: _451  and  _454
REMARK  184  A    between atoms: _454  and  _455
REMARK  185  A    between atoms: _455  and  _456
REMARK  186  A    between atoms: _461  and  _463
REMARK  187  A    between atoms: _463  and  _464
REMARK  188  A    between atoms: _463  and  _466
REMARK  189  A    between atoms: _466  and  _467
REMARK  190  A    between atoms: _472  and  _473
REMARK  191  A    between atoms: _475  and  _477
REMARK  192  A    between atoms: _477  and  _478
REMARK  193  A    between atoms: _481  and  _483
REMARK  194  A    between atoms: _483  and  _484
REMARK  195  A    between atoms: _483  and  _486
REMARK  196  A    between atoms: _486  and  _487
REMARK  197  A    between atoms: _492  and  _493
REMARK  198  A    between atoms: _495  and  _497
REMARK  199  A    between atoms: _497  and  _498
REMARK  200  A    between atoms: _497  and  _500
REMARK  201  A    between atoms: _500  and  _501
REMARK  202  A    between atoms: _506  and  _507
REMARK  203  A    between atoms: _509  and  _511
REMARK  204  A    between atoms: _511  and  _512
REMARK  205  A    between atoms: _511  and  _514
REMARK  206  A    between atoms: _514  and  _515
REMARK  207  A    between atoms: _518  and  _520
REMARK  208  A    between atoms: _520  and  _521
REMARK  209  A    between atoms: _520  and  _523
REMARK  210  A    between atoms: _523  and  _524
REMARK  211  A    between atoms: _534  and  _536
REMARK  212  A    between atoms: _536  and  _537
REMARK  213  A    between atoms: _540  and  _542
REMARK  214  A    between atoms: _542  and  _543
REMARK  215  A    between atoms: _546  and  _548
REMARK  216  A    between atoms: _548  and  _549
REMARK  217  A    between atoms: _548  and  _551
REMARK  218  A    between atoms: _551  and  _552
REMARK  219  A    between atoms: _555  and  _557
REMARK  220  A    between atoms: _557  and  _558
REMARK  221  A    between atoms: _557  and  _560
REMARK  222  A    between atoms: _560  and  _561
REMARK  223  A    between atoms: _564  and  _566
REMARK  224  A    between atoms: _566  and  _567
REMARK  225  A    between atoms: _566  and  _569
REMARK  226  A    between atoms: _569  and  _570
REMARK  227  A    between atoms: _573  and  _575
REMARK  228  A    between atoms: _575  and  _576
REMARK  229  A    between atoms: _575  and  _578
REMARK  230  A    between atoms: _578  and  _579
REMARK  231  A    between atoms: _579  and  _580
REMARK  232  A    between atoms: _580  and  _581
REMARK  233  A    between atoms: _581  and  _582
REMARK  234  A    between atoms: _586  and  _588
REMARK  235  A    between atoms: _588  and  _589
REMARK  236  A    between atoms: _588  and  _591
REMARK  237  A    between atoms: _591  and  _592
REMARK  238  A    between atoms: _597  and  _599
REMARK  239  A    between atoms: _599  and  _600
REMARK  240  A    between atoms: _599  and  _602
REMARK  241  A    between atoms: _602  and  _603
REMARK  242  A    between atoms: _603  and  _604
REMARK  243  A    between atoms: _604  and  _605
REMARK  244  A    between atoms: _605  and  _606
REMARK  245  A    between atoms: _610  and  _612
REMARK  246  A    between atoms: _612  and  _613
REMARK  247  A    between atoms: _612  and  _615
REMARK  248  A    between atoms: _615  and  _616
REMARK  249  A    between atoms: _626  and  _628
REMARK  250  A    between atoms: _628  and  _629
REMARK  251  A    between atoms: _628  and  _631
REMARK  252  A    between atoms: _631  and  _632
REMARK  253  A    between atoms: _632  and  _633
REMARK  254  A    between atoms: _636  and  _638
REMARK  255  A    between atoms: _638  and  _639
REMARK  256  A    between atoms: _642  and  _644
REMARK  257  A    between atoms: _644  and  _645
REMARK  258  A    between atoms: _647  and  _649
REMARK  259  A    between atoms: _649  and  _650
REMARK  260  A    between atoms: _649  and  _652
REMARK  261  A    between atoms: _652  and  _653
REMARK  262  A    between atoms: _653  and  _654
REMARK  263  A    between atoms: _657  and  _659
REMARK  264  A    between atoms: _659  and  _660
REMARK  265  A    between atoms: _663  and  _665
REMARK  266  A    between atoms: _665  and  _666
REMARK  267  A    between atoms: _665  and  _668
REMARK  268  A    between atoms: _668  and  _669
REMARK  269  A    between atoms: _669  and  _670
REMARK  270  A    between atoms: _673  and  _675
REMARK  271  A    between atoms: _675  and  _676
REMARK  272  A    between atoms: _675  and  _678
REMARK  273  A    between atoms: _678  and  _679
REMARK  274  A    between atoms: _679  and  _680
REMARK  275  A    between atoms: _680  and  _681
REMARK  276  A    between atoms: _690  and  _692
REMARK  277  A    between atoms: _692  and  _693
REMARK  278  A    between atoms: _692  and  _695
REMARK  279  A    between atoms: _695  and  _696
REMARK  280  A    between atoms: _699  and  _701
REMARK  281  A    between atoms: _701  and  _702
REMARK  282  A    between atoms: _701  and  _704
REMARK  283  A    between atoms: _704  and  _705
REMARK  284  A    between atoms: _705  and  _706
REMARK  285  A    between atoms: _706  and  _707
REMARK  286  A    between atoms: _716  and  _718
REMARK  287  A    between atoms: _718  and  _719
REMARK  288  A    between atoms: _722  and  _724
REMARK  289  A    between atoms: _724  and  _725
REMARK  290  A    between atoms: _724  and  _727
REMARK  291  A    between atoms: _727  and  _728
REMARK  292  A    between atoms: _733  and  _734
REMARK  293  A    between atoms: _736  and  _738
REMARK  294  A    between atoms: _738  and  _739
REMARK  295  A    between atoms: _738  and  _741
REMARK  296  A    between atoms: _741  and  _742
REMARK  297  A    between atoms: _745  and  _747
REMARK  298  A    between atoms: _747  and  _748
REMARK  299  A    between atoms: _747  and  _750
REMARK  300  A    between atoms: _750  and  _751
REMARK  301  A    between atoms: _754  and  _756
REMARK  302  A    between atoms: _756  and  _757
REMARK  303  A    between atoms: _756  and  _759
REMARK  304  A    between atoms: _761  and  _763
REMARK  305  A    between atoms: _763  and  _764
REMARK  306  A    between atoms: _763  and  _766
REMARK  307  A    between atoms: _769  and  _771
REMARK  308  A    between atoms: _771  and  _772
REMARK  309  A    between atoms: _771  and  _774
REMARK  310  A    between atoms: _774  and  _775
REMARK  311  A    between atoms: _775  and  _776
REMARK  312  A    between atoms: _779  and  _781
REMARK  313  A    between atoms: _781  and  _782
REMARK  314  A    between atoms: _781  and  _784
REMARK  315  A    between atoms: _784  and  _785
REMARK  316  A    between atoms: _795  and  _797
REMARK  317  A    between atoms: _797  and  _798
REMARK  318  A    between atoms: _797  and  _800
REMARK  319  A    between atoms: _800  and  _801
REMARK  320  A    between atoms: _804  and  _806
REMARK  321  A    between atoms: _806  and  _807
REMARK  322  A    between atoms: _806  and  _809
REMARK  323  A    between atoms: _809  and  _810
REMARK  324  A    between atoms: _810  and  _811
REMARK  325  A    between atoms: _811  and  _812
REMARK  326  A    between atoms: _821  and  _823
REMARK  327  A    between atoms: _823  and  _824
REMARK  328  A    between atoms: _823  and  _826
REMARK  329  A    between atoms: _826  and  _827
REMARK  330  A    between atoms: _832  and  _833
REMARK                            x       y       z     vdW  Elec       q    Type
REMARK                         _______ _______ _______ _____ _____    ______ ____
ROOT
ATOM      1  O   HOH     1      38.252  62.047  -8.038  0.00  0.00    +0.000 OA
ENDROOT
TORSDOF 0
REMARK  Name = ../refined-set-2016/1fzm/1fzm_pocket.pdb
REMARK  330 active torsions:
REMARK  status: ('A' for Active; 'I' for Inactive)
REMARK    1  A    between atoms: _1  and  _3
REMARK    2  A    between atoms: _3  and  _4
REMARK    3  A    between atoms: _3  and  _6
REMARK    4  A    between atoms: _6  and  _7
REMARK    5  A    between atoms: _10  and  _12
REMARK    6  A    between atoms: _12  and  _13
REMARK    7  A    between atoms: _12  and  _15
REMARK    8  A    between atoms: _15  and  _16
REMARK    9  A    between atoms: _16  and  _17
REMARK   10  A    between atoms: _17  and  _18
REMARK   11  A    between atoms: _27  and  _29
REMARK   12  A    between atoms: _29  and  _30
REMARK   13  A    between atoms: _29  and  _32
REMARK   14  A    between atoms: _32  and  _33
REMARK   15  A    between atoms: _38  and  _39
REMARK   16  A    between atoms: _41  and  _43
REMARK   17  A    between atoms: _43  and  _44
REMARK   18  A    between atoms: _43  and  _46
REMARK   19  A    between atoms: _46  and  _47
REMARK   20  A    between atoms: _53  and  _55
REMARK   21  A    between atoms: _55  and  _56
REMARK   22  A    between atoms: _55  and  _58
REMARK   23  A    between atoms: _61  and  _63
REMARK   24  A    between atoms: _63  and  _64
REMARK   25  A    between atoms: _63  and  _66
REMARK   26  A    between atoms: _66  and  _67
REMARK   27  A    between atoms: _70  and  _72
REMARK   28  A    between atoms: _72  and  _73
REMARK   29  A    between atoms: _72  and  _75
REMARK   30  A    between atoms: _75  and  _76
REMARK   31  A    between atoms: _82  and  _84
REMARK   32  A    between atoms: _84  and  _85
REMARK   33  A    between atoms: _84  and  _87
REMARK   34  A    between atoms: _87  and  _88
REMARK   35  A    between atoms: _90  and  _92
REMARK   36  A    between atoms: _92  and  _93
REMARK   37  A    between atoms: _92  and  _95
REMARK   38  A    between atoms: _98  and  _100
REMARK   39  A    between atoms: _100  and  _101
REMARK   40  A    between atoms: _100  and  _103
REMARK   41  A    between atoms: _103  and  _104
REMARK   42  A    between atoms: _110  and  _112
REMARK   43  A    between atoms: _112  and  _113
REMARK   44  A    between atoms: _112  and  _115
REMARK   45  A    between atoms: _118  and  _120
REMARK   46  A    between atoms: _120  and  _121
REMARK   47  A    between atoms: _120  and  _123
REMARK   48  A    between atoms: _123  and  _124
REMARK   49  A    between atoms: _129  and  _130
REMARK   50  A    between atoms: _132  and  _134
REMARK   51  A    between atoms: _134  and  _135
REMARK   52  A    between atoms: _134  and  _137
REMARK   53  A    between atoms: _137  and  _138
REMARK   54  A    between atoms: _138  and  _139
REMARK   55  A    between atoms: _141  and  _143
REMARK   56  A    between atoms: _143  and  _144
REMARK   57  A    between atoms: _143  and  _146
REMARK   58  A    between atoms: _146  and  _147
REMARK   59  A    between atoms: _147  and  _148
REMARK   60  A    between atoms: _151  and  _153
REMARK   61  A    between atoms: _153  and  _154
REMARK   62  A    between atoms: _156  and  _158
REMARK   63  A    between atoms: _158  and  _159
REMARK   64  A    between atoms: _158  and  _161
REMARK   65  A    between atoms: _161  and  _162
REMARK   66  A    between atoms: _162  and  _163
REMARK   67  A    between atoms: _166  and  _168
REMARK   68  A    between atoms: _168  and  _169
REMARK   69  A    between atoms: _168  and  _171
REMARK   70  A    between atoms: _171  and  _172
REMARK   71  A    between atoms: _177  and  _178
REMARK   72  A    between atoms: _180  and  _182
REMARK   73  A    between atoms: _182  and  _183
REMARK   74  A    between atoms: _182  and  _185
REMARK   75  A    between atoms: _185  and  _186
REMARK   76  A    between atoms: _196  and  _198
REMARK   77  A    between atoms: _198  and  _199
REMARK   78  A    between atoms: _198  and  _201
REMARK   79  A    between atoms: _201  and  _202
REMARK   80  A    between atoms: _202  and  _203
REMARK   81  A    between atoms: _203  and  _204
REMARK   82  A    between atoms: _213  and  _215
REMARK   83  A    between atoms: _215  and  _216
REMARK   84  A    between atoms: _215  and  _218
REMARK   85  A    between atoms: _218  and  _219
REMARK   86  A    between atoms: _219  and  _220
REMARK   87  A    between atoms: _223  and  _225
REMARK   88  A    between atoms: _225  and  _226
REMARK   89  A    between atoms: _225  and  _228
REMARK   90  A    between atoms: _228  and  _229
REMARK   91  A    between atoms: _229  and  _230
REMARK   92  A    between atoms: _235  and  _237
REMARK   93  A    between atoms: _237  and  _238
REMARK   94  A    between atoms: _237  and  _240
REMARK   95  A    between atoms: _240  and  _241
REMARK   96  A    between atoms: _241  and  _242
REMARK   97  A    between atoms: _242  and  _243
REMARK   98  A    between atoms: _243  and  _244
REMARK   99  A    between atoms: _248  and  _250
REMARK  100  A    between atoms: _250  and  _251
REMARK  101  A    between atoms: _254  and  _256
REMARK  102  A    between atoms: _256  and  _257
REMARK  103  A    between atoms: _259  and  _261
REMARK  104  A    between atoms: _261  and  _262
REMARK  105  A    between atoms: _261  and  _264
REMARK  106  A    between atoms: _264  and  _265
REMARK  107  A    between atoms: _270  and  _272
REMARK  108  A    between atoms: _272  and  _273
REMARK  109  A    between atoms: _272  and  _275
REMARK  110  A    between atoms: _275  and  _276
REMARK  111  A    between atoms: _276  and  _277
REMARK  112  A    between atoms: _280  and  _282
REMARK  113  A    between atoms: _282  and  _283
REMARK  114  A    between atoms: _282  and  _285
REMARK  115  A    between atoms: _285  and  _286
REMARK  116  A    between atoms: _288  and  _290
REMARK  117  A    between atoms: _290  and  _291
REMARK  118  A    between atoms: _290  and  _293
REMARK  119  A    between atoms: _293  and  _294
REMARK  120  A    between atoms: _300  and  _302
REMARK  121  A    between atoms: _302  and  _303
REMARK  122  A    between atoms: _302  and  _305
REMARK  123  A    between atoms: _308  and  _310
REMARK  124  A    between atoms: _310  and  _311
REMARK  125  A    between atoms: _310  and  _313
REMARK  126  A    between atoms: _313  and  _314
REMARK  127  A    between atoms: _317  and  _319
REMARK  128  A    between atoms: _319  and  _320
REMARK  129  A    between atoms: _319  and  _322
REMARK  130  A    between atoms: _322  and  _323
REMARK  131  A    between atoms: _326  and  _328
REMARK  132  A    between atoms: _328  and  _329
REMARK  133  A    between atoms: _328  and  _331
REMARK  134  A    between atoms: _331  and  _332
REMARK  135  A    between atoms: _335  and  _337
REMARK  136  A    between atoms: _337  and  _338
REMARK  137  A    between atoms: _337  and  _340
REMARK  138  A    between atoms: _340  and  _341
REMARK  139  A    between atoms: _344  and  _346
REMARK  140  A    between atoms: _346  and  _347
REMARK  141  A    between atoms: _346  and  _349
REMARK  142  A    between atoms: _349  and  _350
REMARK  143  A    between atoms: _355  and  _356
REMARK  144  A    between atoms: _358  and  _360
REMARK  145  A    between atoms: _360  and  _361
REMARK  146  A    between atoms: _360  and  _363
REMARK  147  A    between atoms: _363  and  _364
REMARK  148  A    between atoms: _369  and  _370
REMARK  149  A    between atoms: _372  and  _374
REMARK  150  A    between atoms: _374  and  _375
REMARK  151  A    between atoms: _374  and  _377
REMARK  152  A    between atoms: _377  and  _378
REMARK  153  A    between atoms: _381  and  _383
REMARK  154  A    between atoms: _383  and  _384
REMARK  155  A    between atoms: _383  and  _386
REMARK  156  A    between atoms: _386  and  _387
REMARK  157  A    between atoms: _387  and  _388
REMARK  158  A    between atoms: _393  and  _395
REMARK  159  A    between atoms: _395  and  _396
REMARK  160  A    between atoms: _395  and  _398
REMARK  161  A    between atoms: _401  and  _403
REMARK  162  A    between atoms: _403  and  _404
REMARK  163  A    between atoms: _403  and  _406
REMARK  164  A    between atoms: _406  and  _407
REMARK  165  A    between atoms: _410  and  _412
REMARK  166  A    between atoms: _412  and  _413
REMARK  167  A    between atoms: _412  and  _415
REMARK  168  A    between atoms: _415  and  _416
REMARK  169  A    between atoms: _418  and  _420
REMARK  170  A    between atoms: _420  and  _421
REMARK  171  A    between atoms: _423  and  _425
REMARK  172  A    between atoms: _425  and  _426
REMARK  173  A    between atoms: _425  and  _428
REMARK  174  A    between atoms: _428  and  _429
REMARK  175  A    between atoms: _434  and  _435
REMARK  176  A    between atoms: _437  and  _439
REMARK  177  A    between atoms: _439  and  _440
REMARK  178  A    between atoms: _439  and  _442
REMARK  179  A    between atoms: _442  and  _443
REMARK  180  A    between atoms: _443  and  _444
REMARK  181  A    between atoms: _449  and  _451
REMARK  182  A    between atoms: _451  and  _452
REMARK  183  A    between atoms: _451  and  _454
REMARK  184  A    between atoms: _454  and  _455
REMARK  185  A    between atoms: _455  and  _456
REMARK  186  A    between atoms: _461  and  _463
REMARK  187  A    between atoms: _463  and  _464
REMARK  188  A    between atoms: _463  and  _466
REMARK  189  A    between atoms: _466  and  _467
REMARK  190  A    between atoms: _472  and  _473
REMARK  191  A    between atoms: _475  and  _477
REMARK  192  A    between atoms: _477  and  _478
REMARK  193  A    between atoms: _481  and  _483
REMARK  194  A    between atoms: _483  and  _484
REMARK  195  A    between atoms: _483  and  _486
REMARK  196  A    between atoms: _486  and  _487
REMARK  197  A    between atoms: _492  and  _493
REMARK  198  A    between atoms: _495  and  _497
REMARK  199  A    between atoms: _497  and  _498
REMARK  200  A    between atoms: _497  and  _500
REMARK  201  A    between atoms: _500  and  _501
REMARK  202  A    between atoms: _506  and  _507
REMARK  203  A    between atoms: _509  and  _511
REMARK  204  A    between atoms: _511  and  _512
REMARK  205  A    between atoms: _511  and  _514
REMARK  206  A    between atoms: _514  and  _515
REMARK  207  A    between atoms: _518  and  _520
REMARK  208  A    between atoms: _520  and  _521
REMARK  209  A    between atoms: _520  and  _523
REMARK  210  A    between atoms: _523  and  _524
REMARK  211  A    between atoms: _534  and  _536
REMARK  212  A    between atoms: _536  and  _537
REMARK  213  A    between atoms: _540  and  _542
REMARK  214  A    between atoms: _542  and  _543
REMARK  215  A    between atoms: _546  and  _548
REMARK  216  A    between atoms: _548  and  _549
REMARK  217  A    between atoms: _548  and  _551
REMARK  218  A    between atoms: _551  and  _552
REMARK  219  A    between atoms: _555  and  _557
REMARK  220  A    between atoms: _557  and  _558
REMARK  221  A    between atoms: _557  and  _560
REMARK  222  A    between atoms: _560  and  _561
REMARK  223  A    between atoms: _564  and  _566
REMARK  224  A    between atoms: _566  and  _567
REMARK  225  A    between atoms: _566  and  _569
REMARK  226  A    between atoms: _569  and  _570
REMARK  227  A    between atoms: _573  and  _575
REMARK  228  A    between atoms: _575  and  _576
REMARK  229  A    between atoms: _575  and  _578
REMARK  230  A    between atoms: _578  and  _579
REMARK  231  A    between atoms: _579  and  _580
REMARK  232  A    between atoms: _580  and  _581
REMARK  233  A    between atoms: _581  and  _582
REMARK  234  A    between atoms: _586  and  _588
REMARK  235  A    between atoms: _588  and  _589
REMARK  236  A    between atoms: _588  and  _591
REMARK  237  A    between atoms: _591  and  _592
REMARK  238  A    between atoms: _597  and  _599
REMARK  239  A    between atoms: _599  and  _600
REMARK  240  A    between atoms: _599  and  _602
REMARK  241  A    between atoms: _602  and  _603
REMARK  242  A    between atoms: _603  and  _604
REMARK  243  A    between atoms: _604  and  _605
REMARK  244  A    between atoms: _605  and  _606
REMARK  245  A    between atoms: _610  and  _612
REMARK  246  A    between atoms: _612  and  _613
REMARK  247  A    between atoms: _612  and  _615
REMARK  248  A    between atoms: _615  and  _616
REMARK  249  A    between atoms: _626  and  _628
REMARK  250  A    between atoms: _628  and  _629
REMARK  251  A    between atoms: _628  and  _631
REMARK  252  A    between atoms: _631  and  _632
REMARK  253  A    between atoms: _632  and  _633
REMARK  254  A    between atoms: _636  and  _638
REMARK  255  A    between atoms: _638  and  _639
REMARK  256  A    between atoms: _642  and  _644
REMARK  257  A    between atoms: _644  and  _645
REMARK  258  A    between atoms: _647  and  _649
REMARK  259  A    between atoms: _649  and  _650
REMARK  260  A    between atoms: _649  and  _652
REMARK  261  A    between atoms: _652  and  _653
REMARK  262  A    between atoms: _653  and  _654
REMARK  263  A    between atoms: _657  and  _659
REMARK  264  A    between atoms: _659  and  _660
REMARK  265  A    between atoms: _663  and  _665
REMARK  266  A    between atoms: _665  and  _666
REMARK  267  A    between atoms: _665  and  _668
REMARK  268  A    between atoms: _668  and  _669
REMARK  269  A    between atoms: _669  and  _670
REMARK  270  A    between atoms: _673  and  _675
REMARK  271  A    between atoms: _675  and  _676
REMARK  272  A    between atoms: _675  and  _678
REMARK  273  A    between atoms: _678  and  _679
REMARK  274  A    between atoms: _679  and  _680
REMARK  275  A    between atoms: _680  and  _681
REMARK  276  A    between atoms: _690  and  _692
REMARK  277  A    between atoms: _692  and  _693
REMARK  278  A    between atoms: _692  and  _695
REMARK  279  A    between atoms: _695  and  _696
REMARK  280  A    between atoms: _699  and  _701
REMARK  281  A    between atoms: _701  and  _702
REMARK  282  A    between atoms: _701  and  _704
REMARK  283  A    between atoms: _704  and  _705
REMARK  284  A    between atoms: _705  and  _706
REMARK  285  A    between atoms: _706  and  _707
REMARK  286  A    between atoms: _716  and  _718
REMARK  287  A    between atoms: _718  and  _719
REMARK  288  A    between atoms: _722  and  _724
REMARK  289  A    between atoms: _724  and  _725
REMARK  290  A    between atoms: _724  and  _727
REMARK  291  A    between atoms: _727  and  _728
REMARK  292  A    between atoms: _733  and  _734
REMARK  293  A    between atoms: _736  and  _738
REMARK  294  A    between atoms: _738  and  _739
REMARK  295  A    between atoms: _738  and  _741
REMARK  296  A    between atoms: _741  and  _742
REMARK  297  A    between atoms: _745  and  _747
REMARK  298  A    between atoms: _747  and  _748
REMARK  299  A    between atoms: _747  and  _750
REMARK  300  A    between atoms: _750  and  _751
REMARK  301  A    between atoms: _754  and  _756
REMARK  302  A    between atoms: _756  and  _757
REMARK  303  A    between atoms: _756  and  _759
REMARK  304  A    between atoms: _761  and  _763
REMARK  305  A    between atoms: _763  and  _764
REMARK  306  A    between atoms: _763  and  _766
REMARK  307  A    between atoms: _769  and  _771
REMARK  308  A    between atoms: _771  and  _772
REMARK  309  A    between atoms: _771  and  _774
REMARK  310  A    between atoms: _774  and  _775
REMARK  311  A    between atoms: _775  and  _776
REMARK  312  A    between atoms: _779  and  _781
REMARK  313  A    between atoms: _781  and  _782
REMARK  314  A    between atoms: _781  and  _784
REMARK  315  A    between atoms: _784  and  _785
REMARK  316  A    between atoms: _795  and  _797
REMARK  317  A    between atoms: _797  and  _798
REMARK  318  A    between atoms: _797  and  _800
REMARK  319  A    between atoms: _800  and  _801
REMARK  320  A    between atoms: _804  and  _806
REMARK  321  A    between atoms: _806  and  _807
REMARK  322  A    between atoms: _806  and  _809
REMARK  323  A    between atoms: _809  and  _810
REMARK  324  A    between atoms: _810  and  _811
REMARK  325  A    between atoms: _811  and  _812
REMARK  326  A    between atoms: _821  and  _823
REMARK  327  A    between atoms: _823  and  _824
REMARK  328  A    between atoms: _823  and  _826
REMARK  329  A    between atoms: _826  and  _827
REMARK  330  A    between atoms: _832  and  _833
REMARK                            x       y       z     vdW  Elec       q    Type
REMARK                         _______ _______ _______ _____ _____    ______ ____
ROOT
ATOM      1  O   HOH     1      45.943  55.454  -1.179  0.00  0.00    +0.000 OA
ENDROOT
TORSDOF 0
REMARK  Name = ../refined-set-2016/1fzm/1fzm_pocket.pdb
REMARK  330 active torsions:
REMARK  status: ('A' for Active; 'I' for Inactive)
REMARK    1  A    between atoms: _1  and  _3
REMARK    2  A    between atoms: _3  and  _4
REMARK    3  A    between atoms: _3  and  _6
REMARK    4  A    between atoms: _6  and  _7
REMARK    5  A    between atoms: _10  and  _12
REMARK    6  A    between atoms: _12  and  _13
REMARK    7  A    between atoms: _12  and  _15
REMARK    8  A    between atoms: _15  and  _16
REMARK    9  A    between atoms: _16  and  _17
REMARK   10  A    between atoms: _17  and  _18
REMARK   11  A    between atoms: _27  and  _29
REMARK   12  A    between atoms: _29  and  _30
REMARK   13  A    between atoms: _29  and  _32
REMARK   14  A    between atoms: _32  and  _33
REMARK   15  A    between atoms: _38  and  _39
REMARK   16  A    between atoms: _41  and  _43
REMARK   17  A    between atoms: _43  and  _44
REMARK   18  A    between atoms: _43  and  _46
REMARK   19  A    between atoms: _46  and  _47
REMARK   20  A    between atoms: _53  and  _55
REMARK   21  A    between atoms: _55  and  _56
REMARK   22  A    between atoms: _55  and  _58
REMARK   23  A    between atoms: _61  and  _63
REMARK   24  A    between atoms: _63  and  _64
REMARK   25  A    between atoms: _63  and  _66
REMARK   26  A    between atoms: _66  and  _67
REMARK   27  A    between atoms: _70  and  _72
REMARK   28  A    between atoms: _72  and  _73
REMARK   29  A    between atoms: _72  and  _75
REMARK   30  A    between atoms: _75  and  _76
REMARK   31  A    between atoms: _82  and  _84
REMARK   32  A    between atoms: _84  and  _85
REMARK   33  A    between atoms: _84  and  _87
REMARK   34  A    between atoms: _87  and  _88
REMARK   35  A    between atoms: _90  and  _92
REMARK   36  A    between atoms: _92  and  _93
REMARK   37  A    between atoms: _92  and  _95
REMARK   38  A    between atoms: _98  and  _100
REMARK   39  A    between atoms: _100  and  _101
REMARK   40  A    between atoms: _100  and  _103
REMARK   41  A    between atoms: _103  and  _104
REMARK   42  A    between atoms: _110  and  _112
REMARK   43  A    between atoms: _112  and  _113
REMARK   44  A    between atoms: _112  and  _115
REMARK   45  A    between atoms: _118  and  _120
REMARK   46  A    between atoms: _120  and  _121
REMARK   47  A    between atoms: _120  and  _123
REMARK   48  A    between atoms: _123  and  _124
REMARK   49  A    between atoms: _129  and  _130
REMARK   50  A    between atoms: _132  and  _134
REMARK   51  A    between atoms: _134  and  _135
REMARK   52  A    between atoms: _134  and  _137
REMARK   53  A    between atoms: _137  and  _138
REMARK   54  A    between atoms: _138  and  _139
REMARK   55  A    between atoms: _141  and  _143
REMARK   56  A    between atoms: _143  and  _144
REMARK   57  A    between atoms: _143  and  _146
REMARK   58  A    between atoms: _146  and  _147
REMARK   59  A    between atoms: _147  and  _148
REMARK   60  A    between atoms: _151  and  _153
REMARK   61  A    between atoms: _153  and  _154
REMARK   62  A    between atoms: _156  and  _158
REMARK   63  A    between atoms: _158  and  _159
REMARK   64  A    between atoms: _158  and  _161
REMARK   65  A    between atoms: _161  and  _162
REMARK   66  A    between atoms: _162  and  _163
REMARK   67  A    between atoms: _166  and  _168
REMARK   68  A    between atoms: _168  and  _169
REMARK   69  A    between atoms: _168  and  _171
REMARK   70  A    between atoms: _171  and  _172
REMARK   71  A    between atoms: _177  and  _178
REMARK   72  A    between atoms: _180  and  _182
REMARK   73  A    between atoms: _182  and  _183
REMARK   74  A    between atoms: _182  and  _185
REMARK   75  A    between atoms: _185  and  _186
REMARK   76  A    between atoms: _196  and  _198
REMARK   77  A    between atoms: _198  and  _199
REMARK   78  A    between atoms: _198  and  _201
REMARK   79  A    between atoms: _201  and  _202
REMARK   80  A    between atoms: _202  and  _203
REMARK   81  A    between atoms: _203  and  _204
REMARK   82  A    between atoms: _213  and  _215
REMARK   83  A    between atoms: _215  and  _216
REMARK   84  A    between atoms: _215  and  _218
REMARK   85  A    between atoms: _218  and  _219
REMARK   86  A    between atoms: _219  and  _220
REMARK   87  A    between atoms: _223  and  _225
REMARK   88  A    between atoms: _225  and  _226
REMARK   89  A    between atoms: _225  and  _228
REMARK   90  A    between atoms: _228  and  _229
REMARK   91  A    between atoms: _229  and  _230
REMARK   92  A    between atoms: _235  and  _237
REMARK   93  A    between atoms: _237  and  _238
REMARK   94  A    between atoms: _237  and  _240
REMARK   95  A    between atoms: _240  and  _241
REMARK   96  A    between atoms: _241  and  _242
REMARK   97  A    between atoms: _242  and  _243
REMARK   98  A    between atoms: _243  and  _244
REMARK   99  A    between atoms: _248  and  _250
REMARK  100  A    between atoms: _250  and  _251
REMARK  101  A    between atoms: _254  and  _256
REMARK  102  A    between atoms: _256  and  _257
REMARK  103  A    between atoms: _259  and  _261
REMARK  104  A    between atoms: _261  and  _262
REMARK  105  A    between atoms: _261  and  _264
REMARK  106  A    between atoms: _264  and  _265
REMARK  107  A    between atoms: _270  and  _272
REMARK  108  A    between atoms: _272  and  _273
REMARK  109  A    between atoms: _272  and  _275
REMARK  110  A    between atoms: _275  and  _276
REMARK  111  A    between atoms: _276  and  _277
REMARK  112  A    between atoms: _280  and  _282
REMARK  113  A    between atoms: _282  and  _283
REMARK  114  A    between atoms: _282  and  _285
REMARK  115  A    between atoms: _285  and  _286
REMARK  116  A    between atoms: _288  and  _290
REMARK  117  A    between atoms: _290  and  _291
REMARK  118  A    between atoms: _290  and  _293
REMARK  119  A    between atoms: _293  and  _294
REMARK  120  A    between atoms: _300  and  _302
REMARK  121  A    between atoms: _302  and  _303
REMARK  122  A    between atoms: _302  and  _305
REMARK  123  A    between atoms: _308  and  _310
REMARK  124  A    between atoms: _310  and  _311
REMARK  125  A    between atoms: _310  and  _313
REMARK  126  A    between atoms: _313  and  _314
REMARK  127  A    between atoms: _317  and  _319
REMARK  128  A    between atoms: _319  and  _320
REMARK  129  A    between atoms: _319  and  _322
REMARK  130  A    between atoms: _322  and  _323
REMARK  131  A    between atoms: _326  and  _328
REMARK  132  A    between atoms: _328  and  _329
REMARK  133  A    between atoms: _328  and  _331
REMARK  134  A    between atoms: _331  and  _332
REMARK  135  A    between atoms: _335  and  _337
REMARK  136  A    between atoms: _337  and  _338
REMARK  137  A    between atoms: _337  and  _340
REMARK  138  A    between atoms: _340  and  _341
REMARK  139  A    between atoms: _344  and  _346
REMARK  140  A    between atoms: _346  and  _347
REMARK  141  A    between atoms: _346  and  _349
REMARK  142  A    between atoms: _349  and  _350
REMARK  143  A    between atoms: _355  and  _356
REMARK  144  A    between atoms: _358  and  _360
REMARK  145  A    between atoms: _360  and  _361
REMARK  146  A    between atoms: _360  and  _363
REMARK  147  A    between atoms: _363  and  _364
REMARK  148  A    between atoms: _369  and  _370
REMARK  149  A    between atoms: _372  and  _374
REMARK  150  A    between atoms: _374  and  _375
REMARK  151  A    between atoms: _374  and  _377
REMARK  152  A    between atoms: _377  and  _378
REMARK  153  A    between atoms: _381  and  _383
REMARK  154  A    between atoms: _383  and  _384
REMARK  155  A    between atoms: _383  and  _386
REMARK  156  A    between atoms: _386  and  _387
REMARK  157  A    between atoms: _387  and  _388
REMARK  158  A    between atoms: _393  and  _395
REMARK  159  A    between atoms: _395  and  _396
REMARK  160  A    between atoms: _395  and  _398
REMARK  161  A    between atoms: _401  and  _403
REMARK  162  A    between atoms: _403  and  _404
REMARK  163  A    between atoms: _403  and  _406
REMARK  164  A    between atoms: _406  and  _407
REMARK  165  A    between atoms: _410  and  _412
REMARK  166  A    between atoms: _412  and  _413
REMARK  167  A    between atoms: _412  and  _415
REMARK  168  A    between atoms: _415  and  _416
REMARK  169  A    between atoms: _418  and  _420
REMARK  170  A    between atoms: _420  and  _421
REMARK  171  A    between atoms: _423  and  _425
REMARK  172  A    between atoms: _425  and  _426
REMARK  173  A    between atoms: _425  and  _428
REMARK  174  A    between atoms: _428  and  _429
REMARK  175  A    between atoms: _434  and  _435
REMARK  176  A    between atoms: _437  and  _439
REMARK  177  A    between atoms: _439  and  _440
REMARK  178  A    between atoms: _439  and  _442
REMARK  179  A    between atoms: _442  and  _443
REMARK  180  A    between atoms: _443  and  _444
REMARK  181  A    between atoms: _449  and  _451
REMARK  182  A    between atoms: _451  and  _452
REMARK  183  A    between atoms: _451  and  _454
REMARK  184  A    between atoms: _454  and  _455
REMARK  185  A    between atoms: _455  and  _456
REMARK  186  A    between atoms: _461  and  _463
REMARK  187  A    between atoms: _463  and  _464
REMARK  188  A    between atoms: _463  and  _466
REMARK  189  A    between atoms: _466  and  _467
REMARK  190  A    between atoms: _472  and  _473
REMARK  191  A    between atoms: _475  and  _477
REMARK  192  A    between atoms: _477  and  _478
REMARK  193  A    between atoms: _481  and  _483
REMARK  194  A    between atoms: _483  and  _484
REMARK  195  A    between atoms: _483  and  _486
REMARK  196  A    between atoms: _486  and  _487
REMARK  197  A    between atoms: _492  and  _493
REMARK  198  A    between atoms: _495  and  _497
REMARK  199  A    between atoms: _497  and  _498
REMARK  200  A    between atoms: _497  and  _500
REMARK  201  A    between atoms: _500  and  _501
REMARK  202  A    between atoms: _506  and  _507
REMARK  203  A    between atoms: _509  and  _511
REMARK  204  A    between atoms: _511  and  _512
REMARK  205  A    between atoms: _511  and  _514
REMARK  206  A    between atoms: _514  and  _515
REMARK  207  A    between atoms: _518  and  _520
REMARK  208  A    between atoms: _520  and  _521
REMARK  209  A    between atoms: _520  and  _523
REMARK  210  A    between atoms: _523  and  _524
REMARK  211  A    between atoms: _534  and  _536
REMARK  212  A    between atoms: _536  and  _537
REMARK  213  A    between atoms: _540  and  _542
REMARK  214  A    between atoms: _542  and  _543
REMARK  215  A    between atoms: _546  and  _548
REMARK  216  A    between atoms: _548  and  _549
REMARK  217  A    between atoms: _548  and  _551
REMARK  218  A    between atoms: _551  and  _552
REMARK  219  A    between atoms: _555  and  _557
REMARK  220  A    between atoms: _557  and  _558
REMARK  221  A    between atoms: _557  and  _560
REMARK  222  A    between atoms: _560  and  _561
REMARK  223  A    between atoms: _564  and  _566
REMARK  224  A    between atoms: _566  and  _567
REMARK  225  A    between atoms: _566  and  _569
REMARK  226  A    between atoms: _569  and  _570
REMARK  227  A    between atoms: _573  and  _575
REMARK  228  A    between atoms: _575  and  _576
REMARK  229  A    between atoms: _575  and  _578
REMARK  230  A    between atoms: _578  and  _579
REMARK  231  A    between atoms: _579  and  _580
REMARK  232  A    between atoms: _580  and  _581
REMARK  233  A    between atoms: _581  and  _582
REMARK  234  A    between atoms: _586  and  _588
REMARK  235  A    between atoms: _588  and  _589
REMARK  236  A    between atoms: _588  and  _591
REMARK  237  A    between atoms: _591  and  _592
REMARK  238  A    between atoms: _597  and  _599
REMARK  239  A    between atoms: _599  and  _600
REMARK  240  A    between atoms: _599  and  _602
REMARK  241  A    between atoms: _602  and  _603
REMARK  242  A    between atoms: _603  and  _604
REMARK  243  A    between atoms: _604  and  _605
REMARK  244  A    between atoms: _605  and  _606
REMARK  245  A    between atoms: _610  and  _612
REMARK  246  A    between atoms: _612  and  _613
REMARK  247  A    between atoms: _612  and  _615
REMARK  248  A    between atoms: _615  and  _616
REMARK  249  A    between atoms: _626  and  _628
REMARK  250  A    between atoms: _628  and  _629
REMARK  251  A    between atoms: _628  and  _631
REMARK  252  A    between atoms: _631  and  _632
REMARK  253  A    between atoms: _632  and  _633
REMARK  254  A    between atoms: _636  and  _638
REMARK  255  A    between atoms: _638  and  _639
REMARK  256  A    between atoms: _642  and  _644
REMARK  257  A    between atoms: _644  and  _645
REMARK  258  A    between atoms: _647  and  _649
REMARK  259  A    between atoms: _649  and  _650
REMARK  260  A    between atoms: _649  and  _652
REMARK  261  A    between atoms: _652  and  _653
REMARK  262  A    between atoms: _653  and  _654
REMARK  263  A    between atoms: _657  and  _659
REMARK  264  A    between atoms: _659  and  _660
REMARK  265  A    between atoms: _663  and  _665
REMARK  266  A    between atoms: _665  and  _666
REMARK  267  A    between atoms: _665  and  _668
REMARK  268  A    between atoms: _668  and  _669
REMARK  269  A    between atoms: _669  and  _670
REMARK  270  A    between atoms: _673  and  _675
REMARK  271  A    between atoms: _675  and  _676
REMARK  272  A    between atoms: _675  and  _678
REMARK  273  A    between atoms: _678  and  _679
REMARK  274  A    between atoms: _679  and  _680
REMARK  275  A    between atoms: _680  and  _681
REMARK  276  A    between atoms: _690  and  _692
REMARK  277  A    between atoms: _692  and  _693
REMARK  278  A    between atoms: _692  and  _695
REMARK  279  A    between atoms: _695  and  _696
REMARK  280  A    between atoms: _699  and  _701
REMARK  281  A    between atoms: _701  and  _702
REMARK  282  A    between atoms: _701  and  _704
REMARK  283  A    between atoms: _704  and  _705
REMARK  284  A    between atoms: _705  and  _706
REMARK  285  A    between atoms: _706  and  _707
REMARK  286  A    between atoms: _716  and  _718
REMARK  287  A    between atoms: _718  and  _719
REMARK  288  A    between atoms: _722  and  _724
REMARK  289  A    between atoms: _724  and  _725
REMARK  290  A    between atoms: _724  and  _727
REMARK  291  A    between atoms: _727  and  _728
REMARK  292  A    between atoms: _733  and  _734
REMARK  293  A    between atoms: _736  and  _738
REMARK  294  A    between atoms: _738  and  _739
REMARK  295  A    between atoms: _738  and  _741
REMARK  296  A    between atoms: _741  and  _742
REMARK  297  A    between atoms: _745  and  _747
REMARK  298  A    between atoms: _747  and  _748
REMARK  299  A    between atoms: _747  and  _750
REMARK  300  A    between atoms: _750  and  _751
REMARK  301  A    between atoms: _754  and  _756
REMARK  302  A    between atoms: _756  and  _757
REMARK  303  A    between atoms: _756  and  _759
REMARK  304  A    between atoms: _761  and  _763
REMARK  305  A    between atoms: _763  and  _764
REMARK  306  A    between atoms: _763  and  _766
REMARK  307  A    between atoms: _769  and  _771
REMARK  308  A    between atoms: _771  and  _772
REMARK  309  A    between atoms: _771  and  _774
REMARK  310  A    between atoms: _774  and  _775
REMARK  311  A    between atoms: _775  and  _776
REMARK  312  A    between atoms: _779  and  _781
REMARK  313  A    between atoms: _781  and  _782
REMARK  314  A    between atoms: _781  and  _784
REMARK  315  A    between atoms: _784  and  _785
REMARK  316  A    between atoms: _795  and  _797
REMARK  317  A    between atoms: _797  and  _798
REMARK  318  A    between atoms: _797  and  _800
REMARK  319  A    between atoms: _800  and  _801
REMARK  320  A    between atoms: _804  and  _806
REMARK  321  A    between atoms: _806  and  _807
REMARK  322  A    between atoms: _806  and  _809
REMARK  323  A    between atoms: _809  and  _810
REMARK  324  A    between atoms: _810  and  _811
REMARK  325  A    between atoms: _811  and  _812
REMARK  326  A    between atoms: _821  and  _823
REMARK  327  A    between atoms: _823  and  _824
REMARK  328  A    between atoms: _823  and  _826
REMARK  329  A    between atoms: _826  and  _827
REMARK  330  A    between atoms: _832  and  _833
REMARK                            x       y       z     vdW  Elec       q    Type
REMARK                         _______ _______ _______ _____ _____    ______ ____
ROOT
ATOM      1  O   HOH     1      46.656  63.127  -2.643  0.00  0.00    +0.000 OA
ENDROOT
TORSDOF 0
REMARK  Name = ../refined-set-2016/1fzm/1fzm_pocket.pdb
REMARK  330 active torsions:
REMARK  status: ('A' for Active; 'I' for Inactive)
REMARK    1  A    between atoms: _1  and  _3
REMARK    2  A    between atoms: _3  and  _4
REMARK    3  A    between atoms: _3  and  _6
REMARK    4  A    between atoms: _6  and  _7
REMARK    5  A    between atoms: _10  and  _12
REMARK    6  A    between atoms: _12  and  _13
REMARK    7  A    between atoms: _12  and  _15
REMARK    8  A    between atoms: _15  and  _16
REMARK    9  A    between atoms: _16  and  _17
REMARK   10  A    between atoms: _17  and  _18
REMARK   11  A    between atoms: _27  and  _29
REMARK   12  A    between atoms: _29  and  _30
REMARK   13  A    between atoms: _29  and  _32
REMARK   14  A    between atoms: _32  and  _33
REMARK   15  A    between atoms: _38  and  _39
REMARK   16  A    between atoms: _41  and  _43
REMARK   17  A    between atoms: _43  and  _44
REMARK   18  A    between atoms: _43  and  _46
REMARK   19  A    between atoms: _46  and  _47
REMARK   20  A    between atoms: _53  and  _55
REMARK   21  A    between atoms: _55  and  _56
REMARK   22  A    between atoms: _55  and  _58
REMARK   23  A    between atoms: _61  and  _63
REMARK   24  A    between atoms: _63  and  _64
REMARK   25  A    between atoms: _63  and  _66
REMARK   26  A    between atoms: _66  and  _67
REMARK   27  A    between atoms: _70  and  _72
REMARK   28  A    between atoms: _72  and  _73
REMARK   29  A    between atoms: _72  and  _75
REMARK   30  A    between atoms: _75  and  _76
REMARK   31  A    between atoms: _82  and  _84
REMARK   32  A    between atoms: _84  and  _85
REMARK   33  A    between atoms: _84  and  _87
REMARK   34  A    between atoms: _87  and  _88
REMARK   35  A    between atoms: _90  and  _92
REMARK   36  A    between atoms: _92  and  _93
REMARK   37  A    between atoms: _92  and  _95
REMARK   38  A    between atoms: _98  and  _100
REMARK   39  A    between atoms: _100  and  _101
REMARK   40  A    between atoms: _100  and  _103
REMARK   41  A    between atoms: _103  and  _104
REMARK   42  A    between atoms: _110  and  _112
REMARK   43  A    between atoms: _112  and  _113
REMARK   44  A    between atoms: _112  and  _115
REMARK   45  A    between atoms: _118  and  _120
REMARK   46  A    between atoms: _120  and  _121
REMARK   47  A    between atoms: _120  and  _123
REMARK   48  A    between atoms: _123  and  _124
REMARK   49  A    between atoms: _129  and  _130
REMARK   50  A    between atoms: _132  and  _134
REMARK   51  A    between atoms: _134  and  _135
REMARK   52  A    between atoms: _134  and  _137
REMARK   53  A    between atoms: _137  and  _138
REMARK   54  A    between atoms: _138  and  _139
REMARK   55  A    between atoms: _141  and  _143
REMARK   56  A    between atoms: _143  and  _144
REMARK   57  A    between atoms: _143  and  _146
REMARK   58  A    between atoms: _146  and  _147
REMARK   59  A    between atoms: _147  and  _148
REMARK   60  A    between atoms: _151  and  _153
REMARK   61  A    between atoms: _153  and  _154
REMARK   62  A    between atoms: _156  and  _158
REMARK   63  A    between atoms: _158  and  _159
REMARK   64  A    between atoms: _158  and  _161
REMARK   65  A    between atoms: _161  and  _162
REMARK   66  A    between atoms: _162  and  _163
REMARK   67  A    between atoms: _166  and  _168
REMARK   68  A    between atoms: _168  and  _169
REMARK   69  A    between atoms: _168  and  _171
REMARK   70  A    between atoms: _171  and  _172
REMARK   71  A    between atoms: _177  and  _178
REMARK   72  A    between atoms: _180  and  _182
REMARK   73  A    between atoms: _182  and  _183
REMARK   74  A    between atoms: _182  and  _185
REMARK   75  A    between atoms: _185  and  _186
REMARK   76  A    between atoms: _196  and  _198
REMARK   77  A    between atoms: _198  and  _199
REMARK   78  A    between atoms: _198  and  _201
REMARK   79  A    between atoms: _201  and  _202
REMARK   80  A    between atoms: _202  and  _203
REMARK   81  A    between atoms: _203  and  _204
REMARK   82  A    between atoms: _213  and  _215
REMARK   83  A    between atoms: _215  and  _216
REMARK   84  A    between atoms: _215  and  _218
REMARK   85  A    between atoms: _218  and  _219
REMARK   86  A    between atoms: _219  and  _220
REMARK   87  A    between atoms: _223  and  _225
REMARK   88  A    between atoms: _225  and  _226
REMARK   89  A    between atoms: _225  and  _228
REMARK   90  A    between atoms: _228  and  _229
REMARK   91  A    between atoms: _229  and  _230
REMARK   92  A    between atoms: _235  and  _237
REMARK   93  A    between atoms: _237  and  _238
REMARK   94  A    between atoms: _237  and  _240
REMARK   95  A    between atoms: _240  and  _241
REMARK   96  A    between atoms: _241  and  _242
REMARK   97  A    between atoms: _242  and  _243
REMARK   98  A    between atoms: _243  and  _244
REMARK   99  A    between atoms: _248  and  _250
REMARK  100  A    between atoms: _250  and  _251
REMARK  101  A    between atoms: _254  and  _256
REMARK  102  A    between atoms: _256  and  _257
REMARK  103  A    between atoms: _259  and  _261
REMARK  104  A    between atoms: _261  and  _262
REMARK  105  A    between atoms: _261  and  _264
REMARK  106  A    between atoms: _264  and  _265
REMARK  107  A    between atoms: _270  and  _272
REMARK  108  A    between atoms: _272  and  _273
REMARK  109  A    between atoms: _272  and  _275
REMARK  110  A    between atoms: _275  and  _276
REMARK  111  A    between atoms: _276  and  _277
REMARK  112  A    between atoms: _280  and  _282
REMARK  113  A    between atoms: _282  and  _283
REMARK  114  A    between atoms: _282  and  _285
REMARK  115  A    between atoms: _285  and  _286
REMARK  116  A    between atoms: _288  and  _290
REMARK  117  A    between atoms: _290  and  _291
REMARK  118  A    between atoms: _290  and  _293
REMARK  119  A    between atoms: _293  and  _294
REMARK  120  A    between atoms: _300  and  _302
REMARK  121  A    between atoms: _302  and  _303
REMARK  122  A    between atoms: _302  and  _305
REMARK  123  A    between atoms: _308  and  _310
REMARK  124  A    between atoms: _310  and  _311
REMARK  125  A    between atoms: _310  and  _313
REMARK  126  A    between atoms: _313  and  _314
REMARK  127  A    between atoms: _317  and  _319
REMARK  128  A    between atoms: _319  and  _320
REMARK  129  A    between atoms: _319  and  _322
REMARK  130  A    between atoms: _322  and  _323
REMARK  131  A    between atoms: _326  and  _328
REMARK  132  A    between atoms: _328  and  _329
REMARK  133  A    between atoms: _328  and  _331
REMARK  134  A    between atoms: _331  and  _332
REMARK  135  A    between atoms: _335  and  _337
REMARK  136  A    between atoms: _337  and  _338
REMARK  137  A    between atoms: _337  and  _340
REMARK  138  A    between atoms: _340  and  _341
REMARK  139  A    between atoms: _344  and  _346
REMARK  140  A    between atoms: _346  and  _347
REMARK  141  A    between atoms: _346  and  _349
REMARK  142  A    between atoms: _349  and  _350
REMARK  143  A    between atoms: _355  and  _356
REMARK  144  A    between atoms: _358  and  _360
REMARK  145  A    between atoms: _360  and  _361
REMARK  146  A    between atoms: _360  and  _363
REMARK  147  A    between atoms: _363  and  _364
REMARK  148  A    between atoms: _369  and  _370
REMARK  149  A    between atoms: _372  and  _374
REMARK  150  A    between atoms: _374  and  _375
REMARK  151  A    between atoms: _374  and  _377
REMARK  152  A    between atoms: _377  and  _378
REMARK  153  A    between atoms: _381  and  _383
REMARK  154  A    between atoms: _383  and  _384
REMARK  155  A    between atoms: _383  and  _386
REMARK  156  A    between atoms: _386  and  _387
REMARK  157  A    between atoms: _387  and  _388
REMARK  158  A    between atoms: _393  and  _395
REMARK  159  A    between atoms: _395  and  _396
REMARK  160  A    between atoms: _395  and  _398
REMARK  161  A    between atoms: _401  and  _403
REMARK  162  A    between atoms: _403  and  _404
REMARK  163  A    between atoms: _403  and  _406
REMARK  164  A    between atoms: _406  and  _407
REMARK  165  A    between atoms: _410  and  _412
REMARK  166  A    between atoms: _412  and  _413
REMARK  167  A    between atoms: _412  and  _415
REMARK  168  A    between atoms: _415  and  _416
REMARK  169  A    between atoms: _418  and  _420
REMARK  170  A    between atoms: _420  and  _421
REMARK  171  A    between atoms: _423  and  _425
REMARK  172  A    between atoms: _425  and  _426
REMARK  173  A    between atoms: _425  and  _428
REMARK  174  A    between atoms: _428  and  _429
REMARK  175  A    between atoms: _434  and  _435
REMARK  176  A    between atoms: _437  and  _439
REMARK  177  A    between atoms: _439  and  _440
REMARK  178  A    between atoms: _439  and  _442
REMARK  179  A    between atoms: _442  and  _443
REMARK  180  A    between atoms: _443  and  _444
REMARK  181  A    between atoms: _449  and  _451
REMARK  182  A    between atoms: _451  and  _452
REMARK  183  A    between atoms: _451  and  _454
REMARK  184  A    between atoms: _454  and  _455
REMARK  185  A    between atoms: _455  and  _456
REMARK  186  A    between atoms: _461  and  _463
REMARK  187  A    between atoms: _463  and  _464
REMARK  188  A    between atoms: _463  and  _466
REMARK  189  A    between atoms: _466  and  _467
REMARK  190  A    between atoms: _472  and  _473
REMARK  191  A    between atoms: _475  and  _477
REMARK  192  A    between atoms: _477  and  _478
REMARK  193  A    between atoms: _481  and  _483
REMARK  194  A    between atoms: _483  and  _484
REMARK  195  A    between atoms: _483  and  _486
REMARK  196  A    between atoms: _486  and  _487
REMARK  197  A    between atoms: _492  and  _493
REMARK  198  A    between atoms: _495  and  _497
REMARK  199  A    between atoms: _497  and  _498
REMARK  200  A    between atoms: _497  and  _500
REMARK  201  A    between atoms: _500  and  _501
REMARK  202  A    between atoms: _506  and  _507
REMARK  203  A    between atoms: _509  and  _511
REMARK  204  A    between atoms: _511  and  _512
REMARK  205  A    between atoms: _511  and  _514
REMARK  206  A    between atoms: _514  and  _515
REMARK  207  A    between atoms: _518  and  _520
REMARK  208  A    between atoms: _520  and  _521
REMARK  209  A    between atoms: _520  and  _523
REMARK  210  A    between atoms: _523  and  _524
REMARK  211  A    between atoms: _534  and  _536
REMARK  212  A    between atoms: _536  and  _537
REMARK  213  A    between atoms: _540  and  _542
REMARK  214  A    between atoms: _542  and  _543
REMARK  215  A    between atoms: _546  and  _548
REMARK  216  A    between atoms: _548  and  _549
REMARK  217  A    between atoms: _548  and  _551
REMARK  218  A    between atoms: _551  and  _552
REMARK  219  A    between atoms: _555  and  _557
REMARK  220  A    between atoms: _557  and  _558
REMARK  221  A    between atoms: _557  and  _560
REMARK  222  A    between atoms: _560  and  _561
REMARK  223  A    between atoms: _564  and  _566
REMARK  224  A    between atoms: _566  and  _567
REMARK  225  A    between atoms: _566  and  _569
REMARK  226  A    between atoms: _569  and  _570
REMARK  227  A    between atoms: _573  and  _575
REMARK  228  A    between atoms: _575  and  _576
REMARK  229  A    between atoms: _575  and  _578
REMARK  230  A    between atoms: _578  and  _579
REMARK  231  A    between atoms: _579  and  _580
REMARK  232  A    between atoms: _580  and  _581
REMARK  233  A    between atoms: _581  and  _582
REMARK  234  A    between atoms: _586  and  _588
REMARK  235  A    between atoms: _588  and  _589
REMARK  236  A    between atoms: _588  and  _591
REMARK  237  A    between atoms: _591  and  _592
REMARK  238  A    between atoms: _597  and  _599
REMARK  239  A    between atoms: _599  and  _600
REMARK  240  A    between atoms: _599  and  _602
REMARK  241  A    between atoms: _602  and  _603
REMARK  242  A    between atoms: _603  and  _604
REMARK  243  A    between atoms: _604  and  _605
REMARK  244  A    between atoms: _605  and  _606
REMARK  245  A    between atoms: _610  and  _612
REMARK  246  A    between atoms: _612  and  _613
REMARK  247  A    between atoms: _612  and  _615
REMARK  248  A    between atoms: _615  and  _616
REMARK  249  A    between atoms: _626  and  _628
REMARK  250  A    between atoms: _628  and  _629
REMARK  251  A    between atoms: _628  and  _631
REMARK  252  A    between atoms: _631  and  _632
REMARK  253  A    between atoms: _632  and  _633
REMARK  254  A    between atoms: _636  and  _638
REMARK  255  A    between atoms: _638  and  _639
REMARK  256  A    between atoms: _642  and  _644
REMARK  257  A    between atoms: _644  and  _645
REMARK  258  A    between atoms: _647  and  _649
REMARK  259  A    between atoms: _649  and  _650
REMARK  260  A    between atoms: _649  and  _652
REMARK  261  A    between atoms: _652  and  _653
REMARK  262  A    between atoms: _653  and  _654
REMARK  263  A    between atoms: _657  and  _659
REMARK  264  A    between atoms: _659  and  _660
REMARK  265  A    between atoms: _663  and  _665
REMARK  266  A    between atoms: _665  and  _666
REMARK  267  A    between atoms: _665  and  _668
REMARK  268  A    between atoms: _668  and  _669
REMARK  269  A    between atoms: _669  and  _670
REMARK  270  A    between atoms: _673  and  _675
REMARK  271  A    between atoms: _675  and  _676
REMARK  272  A    between atoms: _675  and  _678
REMARK  273  A    between atoms: _678  and  _679
REMARK  274  A    between atoms: _679  and  _680
REMARK  275  A    between atoms: _680  and  _681
REMARK  276  A    between atoms: _690  and  _692
REMARK  277  A    between atoms: _692  and  _693
REMARK  278  A    between atoms: _692  and  _695
REMARK  279  A    between atoms: _695  and  _696
REMARK  280  A    between atoms: _699  and  _701
REMARK  281  A    between atoms: _701  and  _702
REMARK  282  A    between atoms: _701  and  _704
REMARK  283  A    between atoms: _704  and  _705
REMARK  284  A    between atoms: _705  and  _706
REMARK  285  A    between atoms: _706  and  _707
REMARK  286  A    between atoms: _716  and  _718
REMARK  287  A    between atoms: _718  and  _719
REMARK  288  A    between atoms: _722  and  _724
REMARK  289  A    between atoms: _724  and  _725
REMARK  290  A    between atoms: _724  and  _727
REMARK  291  A    between atoms: _727  and  _728
REMARK  292  A    between atoms: _733  and  _734
REMARK  293  A    between atoms: _736  and  _738
REMARK  294  A    between atoms: _738  and  _739
REMARK  295  A    between atoms: _738  and  _741
REMARK  296  A    between atoms: _741  and  _742
REMARK  297  A    between atoms: _745  and  _747
REMARK  298  A    between atoms: _747  and  _748
REMARK  299  A    between atoms: _747  and  _750
REMARK  300  A    between atoms: _750  and  _751
REMARK  301  A    between atoms: _754  and  _756
REMARK  302  A    between atoms: _756  and  _757
REMARK  303  A    between atoms: _756  and  _759
REMARK  304  A    between atoms: _761  and  _763
REMARK  305  A    between atoms: _763  and  _764
REMARK  306  A    between atoms: _763  and  _766
REMARK  307  A    between atoms: _769  and  _771
REMARK  308  A    between atoms: _771  and  _772
REMARK  309  A    between atoms: _771  and  _774
REMARK  310  A    between atoms: _774  and  _775
REMARK  311  A    between atoms: _775  and  _776
REMARK  312  A    between atoms: _779  and  _781
REMARK  313  A    between atoms: _781  and  _782
REMARK  314  A    between atoms: _781  and  _784
REMARK  315  A    between atoms: _784  and  _785
REMARK  316  A    between atoms: _795  and  _797
REMARK  317  A    between atoms: _797  and  _798
REMARK  318  A    between atoms: _797  and  _800
REMARK  319  A    between atoms: _800  and  _801
REMARK  320  A    between atoms: _804  and  _806
REMARK  321  A    between atoms: _806  and  _807
REMARK  322  A    between atoms: _806  and  _809
REMARK  323  A    between atoms: _809  and  _810
REMARK  324  A    between atoms: _810  and  _811
REMARK  325  A    between atoms: _811  and  _812
REMARK  326  A    between atoms: _821  and  _823
REMARK  327  A    between atoms: _823  and  _824
REMARK  328  A    between atoms: _823  and  _826
REMARK  329  A    between atoms: _826  and  _827
REMARK  330  A    between atoms: _832  and  _833
REMARK                            x       y       z     vdW  Elec       q    Type
REMARK                         _______ _______ _______ _____ _____    ______ ____
ROOT
ATOM      1  O   HOH     1      41.232  63.542 -15.132  0.00  0.00    +0.000 OA
ENDROOT
TORSDOF 0
REMARK  Name = ../refined-set-2016/1fzm/1fzm_pocket.pdb
REMARK  330 active torsions:
REMARK  status: ('A' for Active; 'I' for Inactive)
REMARK    1  A    between atoms: _1  and  _3
REMARK    2  A    between atoms: _3  and  _4
REMARK    3  A    between atoms: _3  and  _6
REMARK    4  A    between atoms: _6  and  _7
REMARK    5  A    between atoms: _10  and  _12
REMARK    6  A    between atoms: _12  and  _13
REMARK    7  A    between atoms: _12  and  _15
REMARK    8  A    between atoms: _15  and  _16
REMARK    9  A    between atoms: _16  and  _17
REMARK   10  A    between atoms: _17  and  _18
REMARK   11  A    between atoms: _27  and  _29
REMARK   12  A    between atoms: _29  and  _30
REMARK   13  A    between atoms: _29  and  _32
REMARK   14  A    between atoms: _32  and  _33
REMARK   15  A    between atoms: _38  and  _39
REMARK   16  A    between atoms: _41  and  _43
REMARK   17  A    between atoms: _43  and  _44
REMARK   18  A    between atoms: _43  and  _46
REMARK   19  A    between atoms: _46  and  _47
REMARK   20  A    between atoms: _53  and  _55
REMARK   21  A    between atoms: _55  and  _56
REMARK   22  A    between atoms: _55  and  _58
REMARK   23  A    between atoms: _61  and  _63
REMARK   24  A    between atoms: _63  and  _64
REMARK   25  A    between atoms: _63  and  _66
REMARK   26  A    between atoms: _66  and  _67
REMARK   27  A    between atoms: _70  and  _72
REMARK   28  A    between atoms: _72  and  _73
REMARK   29  A    between atoms: _72  and  _75
REMARK   30  A    between atoms: _75  and  _76
REMARK   31  A    between atoms: _82  and  _84
REMARK   32  A    between atoms: _84  and  _85
REMARK   33  A    between atoms: _84  and  _87
REMARK   34  A    between atoms: _87  and  _88
REMARK   35  A    between atoms: _90  and  _92
REMARK   36  A    between atoms: _92  and  _93
REMARK   37  A    between atoms: _92  and  _95
REMARK   38  A    between atoms: _98  and  _100
REMARK   39  A    between atoms: _100  and  _101
REMARK   40  A    between atoms: _100  and  _103
REMARK   41  A    between atoms: _103  and  _104
REMARK   42  A    between atoms: _110  and  _112
REMARK   43  A    between atoms: _112  and  _113
REMARK   44  A    between atoms: _112  and  _115
REMARK   45  A    between atoms: _118  and  _120
REMARK   46  A    between atoms: _120  and  _121
REMARK   47  A    between atoms: _120  and  _123
REMARK   48  A    between atoms: _123  and  _124
REMARK   49  A    between atoms: _129  and  _130
REMARK   50  A    between atoms: _132  and  _134
REMARK   51  A    between atoms: _134  and  _135
REMARK   52  A    between atoms: _134  and  _137
REMARK   53  A    between atoms: _137  and  _138
REMARK   54  A    between atoms: _138  and  _139
REMARK   55  A    between atoms: _141  and  _143
REMARK   56  A    between atoms: _143  and  _144
REMARK   57  A    between atoms: _143  and  _146
REMARK   58  A    between atoms: _146  and  _147
REMARK   59  A    between atoms: _147  and  _148
REMARK   60  A    between atoms: _151  and  _153
REMARK   61  A    between atoms: _153  and  _154
REMARK   62  A    between atoms: _156  and  _158
REMARK   63  A    between atoms: _158  and  _159
REMARK   64  A    between atoms: _158  and  _161
REMARK   65  A    between atoms: _161  and  _162
REMARK   66  A    between atoms: _162  and  _163
REMARK   67  A    between atoms: _166  and  _168
REMARK   68  A    between atoms: _168  and  _169
REMARK   69  A    between atoms: _168  and  _171
REMARK   70  A    between atoms: _171  and  _172
REMARK   71  A    between atoms: _177  and  _178
REMARK   72  A    between atoms: _180  and  _182
REMARK   73  A    between atoms: _182  and  _183
REMARK   74  A    between atoms: _182  and  _185
REMARK   75  A    between atoms: _185  and  _186
REMARK   76  A    between atoms: _196  and  _198
REMARK   77  A    between atoms: _198  and  _199
REMARK   78  A    between atoms: _198  and  _201
REMARK   79  A    between atoms: _201  and  _202
REMARK   80  A    between atoms: _202  and  _203
REMARK   81  A    between atoms: _203  and  _204
REMARK   82  A    between atoms: _213  and  _215
REMARK   83  A    between atoms: _215  and  _216
REMARK   84  A    between atoms: _215  and  _218
REMARK   85  A    between atoms: _218  and  _219
REMARK   86  A    between atoms: _219  and  _220
REMARK   87  A    between atoms: _223  and  _225
REMARK   88  A    between atoms: _225  and  _226
REMARK   89  A    between atoms: _225  and  _228
REMARK   90  A    between atoms: _228  and  _229
REMARK   91  A    between atoms: _229  and  _230
REMARK   92  A    between atoms: _235  and  _237
REMARK   93  A    between atoms: _237  and  _238
REMARK   94  A    between atoms: _237  and  _240
REMARK   95  A    between atoms: _240  and  _241
REMARK   96  A    between atoms: _241  and  _242
REMARK   97  A    between atoms: _242  and  _243
REMARK   98  A    between atoms: _243  and  _244
REMARK   99  A    between atoms: _248  and  _250
REMARK  100  A    between atoms: _250  and  _251
REMARK  101  A    between atoms: _254  and  _256
REMARK  102  A    between atoms: _256  and  _257
REMARK  103  A    between atoms: _259  and  _261
REMARK  104  A    between atoms: _261  and  _262
REMARK  105  A    between atoms: _261  and  _264
REMARK  106  A    between atoms: _264  and  _265
REMARK  107  A    between atoms: _270  and  _272
REMARK  108  A    between atoms: _272  and  _273
REMARK  109  A    between atoms: _272  and  _275
REMARK  110  A    between atoms: _275  and  _276
REMARK  111  A    between atoms: _276  and  _277
REMARK  112  A    between atoms: _280  and  _282
REMARK  113  A    between atoms: _282  and  _283
REMARK  114  A    between atoms: _282  and  _285
REMARK  115  A    between atoms: _285  and  _286
REMARK  116  A    between atoms: _288  and  _290
REMARK  117  A    between atoms: _290  and  _291
REMARK  118  A    between atoms: _290  and  _293
REMARK  119  A    between atoms: _293  and  _294
REMARK  120  A    between atoms: _300  and  _302
REMARK  121  A    between atoms: _302  and  _303
REMARK  122  A    between atoms: _302  and  _305
REMARK  123  A    between atoms: _308  and  _310
REMARK  124  A    between atoms: _310  and  _311
REMARK  125  A    between atoms: _310  and  _313
REMARK  126  A    between atoms: _313  and  _314
REMARK  127  A    between atoms: _317  and  _319
REMARK  128  A    between atoms: _319  and  _320
REMARK  129  A    between atoms: _319  and  _322
REMARK  130  A    between atoms: _322  and  _323
REMARK  131  A    between atoms: _326  and  _328
REMARK  132  A    between atoms: _328  and  _329
REMARK  133  A    between atoms: _328  and  _331
REMARK  134  A    between atoms: _331  and  _332
REMARK  135  A    between atoms: _335  and  _337
REMARK  136  A    between atoms: _337  and  _338
REMARK  137  A    between atoms: _337  and  _340
REMARK  138  A    between atoms: _340  and  _341
REMARK  139  A    between atoms: _344  and  _346
REMARK  140  A    between atoms: _346  and  _347
REMARK  141  A    between atoms: _346  and  _349
REMARK  142  A    between atoms: _349  and  _350
REMARK  143  A    between atoms: _355  and  _356
REMARK  144  A    between atoms: _358  and  _360
REMARK  145  A    between atoms: _360  and  _361
REMARK  146  A    between atoms: _360  and  _363
REMARK  147  A    between atoms: _363  and  _364
REMARK  148  A    between atoms: _369  and  _370
REMARK  149  A    between atoms: _372  and  _374
REMARK  150  A    between atoms: _374  and  _375
REMARK  151  A    between atoms: _374  and  _377
REMARK  152  A    between atoms: _377  and  _378
REMARK  153  A    between atoms: _381  and  _383
REMARK  154  A    between atoms: _383  and  _384
REMARK  155  A    between atoms: _383  and  _386
REMARK  156  A    between atoms: _386  and  _387
REMARK  157  A    between atoms: _387  and  _388
REMARK  158  A    between atoms: _393  and  _395
REMARK  159  A    between atoms: _395  and  _396
REMARK  160  A    between atoms: _395  and  _398
REMARK  161  A    between atoms: _401  and  _403
REMARK  162  A    between atoms: _403  and  _404
REMARK  163  A    between atoms: _403  and  _406
REMARK  164  A    between atoms: _406  and  _407
REMARK  165  A    between atoms: _410  and  _412
REMARK  166  A    between atoms: _412  and  _413
REMARK  167  A    between atoms: _412  and  _415
REMARK  168  A    between atoms: _415  and  _416
REMARK  169  A    between atoms: _418  and  _420
REMARK  170  A    between atoms: _420  and  _421
REMARK  171  A    between atoms: _423  and  _425
REMARK  172  A    between atoms: _425  and  _426
REMARK  173  A    between atoms: _425  and  _428
REMARK  174  A    between atoms: _428  and  _429
REMARK  175  A    between atoms: _434  and  _435
REMARK  176  A    between atoms: _437  and  _439
REMARK  177  A    between atoms: _439  and  _440
REMARK  178  A    between atoms: _439  and  _442
REMARK  179  A    between atoms: _442  and  _443
REMARK  180  A    between atoms: _443  and  _444
REMARK  181  A    between atoms: _449  and  _451
REMARK  182  A    between atoms: _451  and  _452
REMARK  183  A    between atoms: _451  and  _454
REMARK  184  A    between atoms: _454  and  _455
REMARK  185  A    between atoms: _455  and  _456
REMARK  186  A    between atoms: _461  and  _463
REMARK  187  A    between atoms: _463  and  _464
REMARK  188  A    between atoms: _463  and  _466
REMARK  189  A    between atoms: _466  and  _467
REMARK  190  A    between atoms: _472  and  _473
REMARK  191  A    between atoms: _475  and  _477
REMARK  192  A    between atoms: _477  and  _478
REMARK  193  A    between atoms: _481  and  _483
REMARK  194  A    between atoms: _483  and  _484
REMARK  195  A    between atoms: _483  and  _486
REMARK  196  A    between atoms: _486  and  _487
REMARK  197  A    between atoms: _492  and  _493
REMARK  198  A    between atoms: _495  and  _497
REMARK  199  A    between atoms: _497  and  _498
REMARK  200  A    between atoms: _497  and  _500
REMARK  201  A    between atoms: _500  and  _501
REMARK  202  A    between atoms: _506  and  _507
REMARK  203  A    between atoms: _509  and  _511
REMARK  204  A    between atoms: _511  and  _512
REMARK  205  A    between atoms: _511  and  _514
REMARK  206  A    between atoms: _514  and  _515
REMARK  207  A    between atoms: _518  and  _520
REMARK  208  A    between atoms: _520  and  _521
REMARK  209  A    between atoms: _520  and  _523
REMARK  210  A    between atoms: _523  and  _524
REMARK  211  A    between atoms: _534  and  _536
REMARK  212  A    between atoms: _536  and  _537
REMARK  213  A    between atoms: _540  and  _542
REMARK  214  A    between atoms: _542  and  _543
REMARK  215  A    between atoms: _546  and  _548
REMARK  216  A    between atoms: _548  and  _549
REMARK  217  A    between atoms: _548  and  _551
REMARK  218  A    between atoms: _551  and  _552
REMARK  219  A    between atoms: _555  and  _557
REMARK  220  A    between atoms: _557  and  _558
REMARK  221  A    between atoms: _557  and  _560
REMARK  222  A    between atoms: _560  and  _561
REMARK  223  A    between atoms: _564  and  _566
REMARK  224  A    between atoms: _566  and  _567
REMARK  225  A    between atoms: _566  and  _569
REMARK  226  A    between atoms: _569  and  _570
REMARK  227  A    between atoms: _573  and  _575
REMARK  228  A    between atoms: _575  and  _576
REMARK  229  A    between atoms: _575  and  _578
REMARK  230  A    between atoms: _578  and  _579
REMARK  231  A    between atoms: _579  and  _580
REMARK  232  A    between atoms: _580  and  _581
REMARK  233  A    between atoms: _581  and  _582
REMARK  234  A    between atoms: _586  and  _588
REMARK  235  A    between atoms: _588  and  _589
REMARK  236  A    between atoms: _588  and  _591
REMARK  237  A    between atoms: _591  and  _592
REMARK  238  A    between atoms: _597  and  _599
REMARK  239  A    between atoms: _599  and  _600
REMARK  240  A    between atoms: _599  and  _602
REMARK  241  A    between atoms: _602  and  _603
REMARK  242  A    between atoms: _603  and  _604
REMARK  243  A    between atoms: _604  and  _605
REMARK  244  A    between atoms: _605  and  _606
REMARK  245  A    between atoms: _610  and  _612
REMARK  246  A    between atoms: _612  and  _613
REMARK  247  A    between atoms: _612  and  _615
REMARK  248  A    between atoms: _615  and  _616
REMARK  249  A    between atoms: _626  and  _628
REMARK  250  A    between atoms: _628  and  _629
REMARK  251  A    between atoms: _628  and  _631
REMARK  252  A    between atoms: _631  and  _632
REMARK  253  A    between atoms: _632  and  _633
REMARK  254  A    between atoms: _636  and  _638
REMARK  255  A    between atoms: _638  and  _639
REMARK  256  A    between atoms: _642  and  _644
REMARK  257  A    between atoms: _644  and  _645
REMARK  258  A    between atoms: _647  and  _649
REMARK  259  A    between atoms: _649  and  _650
REMARK  260  A    between atoms: _649  and  _652
REMARK  261  A    between atoms: _652  and  _653
REMARK  262  A    between atoms: _653  and  _654
REMARK  263  A    between atoms: _657  and  _659
REMARK  264  A    between atoms: _659  and  _660
REMARK  265  A    between atoms: _663  and  _665
REMARK  266  A    between atoms: _665  and  _666
REMARK  267  A    between atoms: _665  and  _668
REMARK  268  A    between atoms: _668  and  _669
REMARK  269  A    between atoms: _669  and  _670
REMARK  270  A    between atoms: _673  and  _675
REMARK  271  A    between atoms: _675  and  _676
REMARK  272  A    between atoms: _675  and  _678
REMARK  273  A    between atoms: _678  and  _679
REMARK  274  A    between atoms: _679  and  _680
REMARK  275  A    between atoms: _680  and  _681
REMARK  276  A    between atoms: _690  and  _692
REMARK  277  A    between atoms: _692  and  _693
REMARK  278  A    between atoms: _692  and  _695
REMARK  279  A    between atoms: _695  and  _696
REMARK  280  A    between atoms: _699  and  _701
REMARK  281  A    between atoms: _701  and  _702
REMARK  282  A    between atoms: _701  and  _704
REMARK  283  A    between atoms: _704  and  _705
REMARK  284  A    between atoms: _705  and  _706
REMARK  285  A    between atoms: _706  and  _707
REMARK  286  A    between atoms: _716  and  _718
REMARK  287  A    between atoms: _718  and  _719
REMARK  288  A    between atoms: _722  and  _724
REMARK  289  A    between atoms: _724  and  _725
REMARK  290  A    between atoms: _724  and  _727
REMARK  291  A    between atoms: _727  and  _728
REMARK  292  A    between atoms: _733  and  _734
REMARK  293  A    between atoms: _736  and  _738
REMARK  294  A    between atoms: _738  and  _739
REMARK  295  A    between atoms: _738  and  _741
REMARK  296  A    between atoms: _741  and  _742
REMARK  297  A    between atoms: _745  and  _747
REMARK  298  A    between atoms: _747  and  _748
REMARK  299  A    between atoms: _747  and  _750
REMARK  300  A    between atoms: _750  and  _751
REMARK  301  A    between atoms: _754  and  _756
REMARK  302  A    between atoms: _756  and  _757
REMARK  303  A    between atoms: _756  and  _759
REMARK  304  A    between atoms: _761  and  _763
REMARK  305  A    between atoms: _763  and  _764
REMARK  306  A    between atoms: _763  and  _766
REMARK  307  A    between atoms: _769  and  _771
REMARK  308  A    between atoms: _771  and  _772
REMARK  309  A    between atoms: _771  and  _774
REMARK  310  A    between atoms: _774  and  _775
REMARK  311  A    between atoms: _775  and  _776
REMARK  312  A    between atoms: _779  and  _781
REMARK  313  A    between atoms: _781  and  _782
REMARK  314  A    between atoms: _781  and  _784
REMARK  315  A    between atoms: _784  and  _785
REMARK  316  A    between atoms: _795  and  _797
REMARK  317  A    between atoms: _797  and  _798
REMARK  318  A    between atoms: _797  and  _800
REMARK  319  A    between atoms: _800  and  _801
REMARK  320  A    between atoms: _804  and  _806
REMARK  321  A    between atoms: _806  and  _807
REMARK  322  A    between atoms: _806  and  _809
REMARK  323  A    between atoms: _809  and  _810
REMARK  324  A    between atoms: _810  and  _811
REMARK  325  A    between atoms: _811  and  _812
REMARK  326  A    between atoms: _821  and  _823
REMARK  327  A    between atoms: _823  and  _824
REMARK  328  A    between atoms: _823  and  _826
REMARK  329  A    between atoms: _826  and  _827
REMARK  330  A    between atoms: _832  and  _833
REMARK                            x       y       z     vdW  Elec       q    Type
REMARK                         _______ _______ _______ _____ _____    ______ ____
ROOT
ATOM      1  O   HOH     1      39.150  62.897 -14.521  0.00  0.00    +0.000 OA
ENDROOT
TORSDOF 0
REMARK  Name = ../refined-set-2016/1fzm/1fzm_pocket.pdb
REMARK  330 active torsions:
REMARK  status: ('A' for Active; 'I' for Inactive)
REMARK    1  A    between atoms: _1  and  _3
REMARK    2  A    between atoms: _3  and  _4
REMARK    3  A    between atoms: _3  and  _6
REMARK    4  A    between atoms: _6  and  _7
REMARK    5  A    between atoms: _10  and  _12
REMARK    6  A    between atoms: _12  and  _13
REMARK    7  A    between atoms: _12  and  _15
REMARK    8  A    between atoms: _15  and  _16
REMARK    9  A    between atoms: _16  and  _17
REMARK   10  A    between atoms: _17  and  _18
REMARK   11  A    between atoms: _27  and  _29
REMARK   12  A    between atoms: _29  and  _30
REMARK   13  A    between atoms: _29  and  _32
REMARK   14  A    between atoms: _32  and  _33
REMARK   15  A    between atoms: _38  and  _39
REMARK   16  A    between atoms: _41  and  _43
REMARK   17  A    between atoms: _43  and  _44
REMARK   18  A    between atoms: _43  and  _46
REMARK   19  A    between atoms: _46  and  _47
REMARK   20  A    between atoms: _53  and  _55
REMARK   21  A    between atoms: _55  and  _56
REMARK   22  A    between atoms: _55  and  _58
REMARK   23  A    between atoms: _61  and  _63
REMARK   24  A    between atoms: _63  and  _64
REMARK   25  A    between atoms: _63  and  _66
REMARK   26  A    between atoms: _66  and  _67
REMARK   27  A    between atoms: _70  and  _72
REMARK   28  A    between atoms: _72  and  _73
REMARK   29  A    between atoms: _72  and  _75
REMARK   30  A    between atoms: _75  and  _76
REMARK   31  A    between atoms: _82  and  _84
REMARK   32  A    between atoms: _84  and  _85
REMARK   33  A    between atoms: _84  and  _87
REMARK   34  A    between atoms: _87  and  _88
REMARK   35  A    between atoms: _90  and  _92
REMARK   36  A    between atoms: _92  and  _93
REMARK   37  A    between atoms: _92  and  _95
REMARK   38  A    between atoms: _98  and  _100
REMARK   39  A    between atoms: _100  and  _101
REMARK   40  A    between atoms: _100  and  _103
REMARK   41  A    between atoms: _103  and  _104
REMARK   42  A    between atoms: _110  and  _112
REMARK   43  A    between atoms: _112  and  _113
REMARK   44  A    between atoms: _112  and  _115
REMARK   45  A    between atoms: _118  and  _120
REMARK   46  A    between atoms: _120  and  _121
REMARK   47  A    between atoms: _120  and  _123
REMARK   48  A    between atoms: _123  and  _124
REMARK   49  A    between atoms: _129  and  _130
REMARK   50  A    between atoms: _132  and  _134
REMARK   51  A    between atoms: _134  and  _135
REMARK   52  A    between atoms: _134  and  _137
REMARK   53  A    between atoms: _137  and  _138
REMARK   54  A    between atoms: _138  and  _139
REMARK   55  A    between atoms: _141  and  _143
REMARK   56  A    between atoms: _143  and  _144
REMARK   57  A    between atoms: _143  and  _146
REMARK   58  A    between atoms: _146  and  _147
REMARK   59  A    between atoms: _147  and  _148
REMARK   60  A    between atoms: _151  and  _153
REMARK   61  A    between atoms: _153  and  _154
REMARK   62  A    between atoms: _156  and  _158
REMARK   63  A    between atoms: _158  and  _159
REMARK   64  A    between atoms: _158  and  _161
REMARK   65  A    between atoms: _161  and  _162
REMARK   66  A    between atoms: _162  and  _163
REMARK   67  A    between atoms: _166  and  _168
REMARK   68  A    between atoms: _168  and  _169
REMARK   69  A    between atoms: _168  and  _171
REMARK   70  A    between atoms: _171  and  _172
REMARK   71  A    between atoms: _177  and  _178
REMARK   72  A    between atoms: _180  and  _182
REMARK   73  A    between atoms: _182  and  _183
REMARK   74  A    between atoms: _182  and  _185
REMARK   75  A    between atoms: _185  and  _186
REMARK   76  A    between atoms: _196  and  _198
REMARK   77  A    between atoms: _198  and  _199
REMARK   78  A    between atoms: _198  and  _201
REMARK   79  A    between atoms: _201  and  _202
REMARK   80  A    between atoms: _202  and  _203
REMARK   81  A    between atoms: _203  and  _204
REMARK   82  A    between atoms: _213  and  _215
REMARK   83  A    between atoms: _215  and  _216
REMARK   84  A    between atoms: _215  and  _218
REMARK   85  A    between atoms: _218  and  _219
REMARK   86  A    between atoms: _219  and  _220
REMARK   87  A    between atoms: _223  and  _225
REMARK   88  A    between atoms: _225  and  _226
REMARK   89  A    between atoms: _225  and  _228
REMARK   90  A    between atoms: _228  and  _229
REMARK   91  A    between atoms: _229  and  _230
REMARK   92  A    between atoms: _235  and  _237
REMARK   93  A    between atoms: _237  and  _238
REMARK   94  A    between atoms: _237  and  _240
REMARK   95  A    between atoms: _240  and  _241
REMARK   96  A    between atoms: _241  and  _242
REMARK   97  A    between atoms: _242  and  _243
REMARK   98  A    between atoms: _243  and  _244
REMARK   99  A    between atoms: _248  and  _250
REMARK  100  A    between atoms: _250  and  _251
REMARK  101  A    between atoms: _254  and  _256
REMARK  102  A    between atoms: _256  and  _257
REMARK  103  A    between atoms: _259  and  _261
REMARK  104  A    between atoms: _261  and  _262
REMARK  105  A    between atoms: _261  and  _264
REMARK  106  A    between atoms: _264  and  _265
REMARK  107  A    between atoms: _270  and  _272
REMARK  108  A    between atoms: _272  and  _273
REMARK  109  A    between atoms: _272  and  _275
REMARK  110  A    between atoms: _275  and  _276
REMARK  111  A    between atoms: _276  and  _277
REMARK  112  A    between atoms: _280  and  _282
REMARK  113  A    between atoms: _282  and  _283
REMARK  114  A    between atoms: _282  and  _285
REMARK  115  A    between atoms: _285  and  _286
REMARK  116  A    between atoms: _288  and  _290
REMARK  117  A    between atoms: _290  and  _291
REMARK  118  A    between atoms: _290  and  _293
REMARK  119  A    between atoms: _293  and  _294
REMARK  120  A    between atoms: _300  and  _302
REMARK  121  A    between atoms: _302  and  _303
REMARK  122  A    between atoms: _302  and  _305
REMARK  123  A    between atoms: _308  and  _310
REMARK  124  A    between atoms: _310  and  _311
REMARK  125  A    between atoms: _310  and  _313
REMARK  126  A    between atoms: _313  and  _314
REMARK  127  A    between atoms: _317  and  _319
REMARK  128  A    between atoms: _319  and  _320
REMARK  129  A    between atoms: _319  and  _322
REMARK  130  A    between atoms: _322  and  _323
REMARK  131  A    between atoms: _326  and  _328
REMARK  132  A    between atoms: _328  and  _329
REMARK  133  A    between atoms: _328  and  _331
REMARK  134  A    between atoms: _331  and  _332
REMARK  135  A    between atoms: _335  and  _337
REMARK  136  A    between atoms: _337  and  _338
REMARK  137  A    between atoms: _337  and  _340
REMARK  138  A    between atoms: _340  and  _341
REMARK  139  A    between atoms: _344  and  _346
REMARK  140  A    between atoms: _346  and  _347
REMARK  141  A    between atoms: _346  and  _349
REMARK  142  A    between atoms: _349  and  _350
REMARK  143  A    between atoms: _355  and  _356
REMARK  144  A    between atoms: _358  and  _360
REMARK  145  A    between atoms: _360  and  _361
REMARK  146  A    between atoms: _360  and  _363
REMARK  147  A    between atoms: _363  and  _364
REMARK  148  A    between atoms: _369  and  _370
REMARK  149  A    between atoms: _372  and  _374
REMARK  150  A    between atoms: _374  and  _375
REMARK  151  A    between atoms: _374  and  _377
REMARK  152  A    between atoms: _377  and  _378
REMARK  153  A    between atoms: _381  and  _383
REMARK  154  A    between atoms: _383  and  _384
REMARK  155  A    between atoms: _383  and  _386
REMARK  156  A    between atoms: _386  and  _387
REMARK  157  A    between atoms: _387  and  _388
REMARK  158  A    between atoms: _393  and  _395
REMARK  159  A    between atoms: _395  and  _396
REMARK  160  A    between atoms: _395  and  _398
REMARK  161  A    between atoms: _401  and  _403
REMARK  162  A    between atoms: _403  and  _404
REMARK  163  A    between atoms: _403  and  _406
REMARK  164  A    between atoms: _406  and  _407
REMARK  165  A    between atoms: _410  and  _412
REMARK  166  A    between atoms: _412  and  _413
REMARK  167  A    between atoms: _412  and  _415
REMARK  168  A    between atoms: _415  and  _416
REMARK  169  A    between atoms: _418  and  _420
REMARK  170  A    between atoms: _420  and  _421
REMARK  171  A    between atoms: _423  and  _425
REMARK  172  A    between atoms: _425  and  _426
REMARK  173  A    between atoms: _425  and  _428
REMARK  174  A    between atoms: _428  and  _429
REMARK  175  A    between atoms: _434  and  _435
REMARK  176  A    between atoms: _437  and  _439
REMARK  177  A    between atoms: _439  and  _440
REMARK  178  A    between atoms: _439  and  _442
REMARK  179  A    between atoms: _442  and  _443
REMARK  180  A    between atoms: _443  and  _444
REMARK  181  A    between atoms: _449  and  _451
REMARK  182  A    between atoms: _451  and  _452
REMARK  183  A    between atoms: _451  and  _454
REMARK  184  A    between atoms: _454  and  _455
REMARK  185  A    between atoms: _455  and  _456
REMARK  186  A    between atoms: _461  and  _463
REMARK  187  A    between atoms: _463  and  _464
REMARK  188  A    between atoms: _463  and  _466
REMARK  189  A    between atoms: _466  and  _467
REMARK  190  A    between atoms: _472  and  _473
REMARK  191  A    between atoms: _475  and  _477
REMARK  192  A    between atoms: _477  and  _478
REMARK  193  A    between atoms: _481  and  _483
REMARK  194  A    between atoms: _483  and  _484
REMARK  195  A    between atoms: _483  and  _486
REMARK  196  A    between atoms: _486  and  _487
REMARK  197  A    between atoms: _492  and  _493
REMARK  198  A    between atoms: _495  and  _497
REMARK  199  A    between atoms: _497  and  _498
REMARK  200  A    between atoms: _497  and  _500
REMARK  201  A    between atoms: _500  and  _501
REMARK  202  A    between atoms: _506  and  _507
REMARK  203  A    between atoms: _509  and  _511
REMARK  204  A    between atoms: _511  and  _512
REMARK  205  A    between atoms: _511  and  _514
REMARK  206  A    between atoms: _514  and  _515
REMARK  207  A    between atoms: _518  and  _520
REMARK  208  A    between atoms: _520  and  _521
REMARK  209  A    between atoms: _520  and  _523
REMARK  210  A    between atoms: _523  and  _524
REMARK  211  A    between atoms: _534  and  _536
REMARK  212  A    between atoms: _536  and  _537
REMARK  213  A    between atoms: _540  and  _542
REMARK  214  A    between atoms: _542  and  _543
REMARK  215  A    between atoms: _546  and  _548
REMARK  216  A    between atoms: _548  and  _549
REMARK  217  A    between atoms: _548  and  _551
REMARK  218  A    between atoms: _551  and  _552
REMARK  219  A    between atoms: _555  and  _557
REMARK  220  A    between atoms: _557  and  _558
REMARK  221  A    between atoms: _557  and  _560
REMARK  222  A    between atoms: _560  and  _561
REMARK  223  A    between atoms: _564  and  _566
REMARK  224  A    between atoms: _566  and  _567
REMARK  225  A    between atoms: _566  and  _569
REMARK  226  A    between atoms: _569  and  _570
REMARK  227  A    between atoms: _573  and  _575
REMARK  228  A    between atoms: _575  and  _576
REMARK  229  A    between atoms: _575  and  _578
REMARK  230  A    between atoms: _578  and  _579
REMARK  231  A    between atoms: _579  and  _580
REMARK  232  A    between atoms: _580  and  _581
REMARK  233  A    between atoms: _581  and  _582
REMARK  234  A    between atoms: _586  and  _588
REMARK  235  A    between atoms: _588  and  _589
REMARK  236  A    between atoms: _588  and  _591
REMARK  237  A    between atoms: _591  and  _592
REMARK  238  A    between atoms: _597  and  _599
REMARK  239  A    between atoms: _599  and  _600
REMARK  240  A    between atoms: _599  and  _602
REMARK  241  A    between atoms: _602  and  _603
REMARK  242  A    between atoms: _603  and  _604
REMARK  243  A    between atoms: _604  and  _605
REMARK  244  A    between atoms: _605  and  _606
REMARK  245  A    between atoms: _610  and  _612
REMARK  246  A    between atoms: _612  and  _613
REMARK  247  A    between atoms: _612  and  _615
REMARK  248  A    between atoms: _615  and  _616
REMARK  249  A    between atoms: _626  and  _628
REMARK  250  A    between atoms: _628  and  _629
REMARK  251  A    between atoms: _628  and  _631
REMARK  252  A    between atoms: _631  and  _632
REMARK  253  A    between atoms: _632  and  _633
REMARK  254  A    between atoms: _636  and  _638
REMARK  255  A    between atoms: _638  and  _639
REMARK  256  A    between atoms: _642  and  _644
REMARK  257  A    between atoms: _644  and  _645
REMARK  258  A    between atoms: _647  and  _649
REMARK  259  A    between atoms: _649  and  _650
REMARK  260  A    between atoms: _649  and  _652
REMARK  261  A    between atoms: _652  and  _653
REMARK  262  A    between atoms: _653  and  _654
REMARK  263  A    between atoms: _657  and  _659
REMARK  264  A    between atoms: _659  and  _660
REMARK  265  A    between atoms: _663  and  _665
REMARK  266  A    between atoms: _665  and  _666
REMARK  267  A    between atoms: _665  and  _668
REMARK  268  A    between atoms: _668  and  _669
REMARK  269  A    between atoms: _669  and  _670
REMARK  270  A    between atoms: _673  and  _675
REMARK  271  A    between atoms: _675  and  _676
REMARK  272  A    between atoms: _675  and  _678
REMARK  273  A    between atoms: _678  and  _679
REMARK  274  A    between atoms: _679  and  _680
REMARK  275  A    between atoms: _680  and  _681
REMARK  276  A    between atoms: _690  and  _692
REMARK  277  A    between atoms: _692  and  _693
REMARK  278  A    between atoms: _692  and  _695
REMARK  279  A    between atoms: _695  and  _696
REMARK  280  A    between atoms: _699  and  _701
REMARK  281  A    between atoms: _701  and  _702
REMARK  282  A    between atoms: _701  and  _704
REMARK  283  A    between atoms: _704  and  _705
REMARK  284  A    between atoms: _705  and  _706
REMARK  285  A    between atoms: _706  and  _707
REMARK  286  A    between atoms: _716  and  _718
REMARK  287  A    between atoms: _718  and  _719
REMARK  288  A    between atoms: _722  and  _724
REMARK  289  A    between atoms: _724  and  _725
REMARK  290  A    between atoms: _724  and  _727
REMARK  291  A    between atoms: _727  and  _728
REMARK  292  A    between atoms: _733  and  _734
REMARK  293  A    between atoms: _736  and  _738
REMARK  294  A    between atoms: _738  and  _739
REMARK  295  A    between atoms: _738  and  _741
REMARK  296  A    between atoms: _741  and  _742
REMARK  297  A    between atoms: _745  and  _747
REMARK  298  A    between atoms: _747  and  _748
REMARK  299  A    between atoms: _747  and  _750
REMARK  300  A    between atoms: _750  and  _751
REMARK  301  A    between atoms: _754  and  _756
REMARK  302  A    between atoms: _756  and  _757
REMARK  303  A    between atoms: _756  and  _759
REMARK  304  A    between atoms: _761  and  _763
REMARK  305  A    between atoms: _763  and  _764
REMARK  306  A    between atoms: _763  and  _766
REMARK  307  A    between atoms: _769  and  _771
REMARK  308  A    between atoms: _771  and  _772
REMARK  309  A    between atoms: _771  and  _774
REMARK  310  A    between atoms: _774  and  _775
REMARK  311  A    between atoms: _775  and  _776
REMARK  312  A    between atoms: _779  and  _781
REMARK  313  A    between atoms: _781  and  _782
REMARK  314  A    between atoms: _781  and  _784
REMARK  315  A    between atoms: _784  and  _785
REMARK  316  A    between atoms: _795  and  _797
REMARK  317  A    between atoms: _797  and  _798
REMARK  318  A    between atoms: _797  and  _800
REMARK  319  A    between atoms: _800  and  _801
REMARK  320  A    between atoms: _804  and  _806
REMARK  321  A    between atoms: _806  and  _807
REMARK  322  A    between atoms: _806  and  _809
REMARK  323  A    between atoms: _809  and  _810
REMARK  324  A    between atoms: _810  and  _811
REMARK  325  A    between atoms: _811  and  _812
REMARK  326  A    between atoms: _821  and  _823
REMARK  327  A    between atoms: _823  and  _824
REMARK  328  A    between atoms: _823  and  _826
REMARK  329  A    between atoms: _826  and  _827
REMARK  330  A    between atoms: _832  and  _833
REMARK                            x       y       z     vdW  Elec       q    Type
REMARK                         _______ _______ _______ _____ _____    ______ ____
ROOT
ATOM      1  O   HOH     1      43.189  57.564   0.835  0.00  0.00    +0.000 OA
ENDROOT
TORSDOF 0
REMARK  Name = ../refined-set-2016/1fzm/1fzm_pocket.pdb
REMARK  330 active torsions:
REMARK  status: ('A' for Active; 'I' for Inactive)
REMARK    1  A    between atoms: _1  and  _3
REMARK    2  A    between atoms: _3  and  _4
REMARK    3  A    between atoms: _3  and  _6
REMARK    4  A    between atoms: _6  and  _7
REMARK    5  A    between atoms: _10  and  _12
REMARK    6  A    between atoms: _12  and  _13
REMARK    7  A    between atoms: _12  and  _15
REMARK    8  A    between atoms: _15  and  _16
REMARK    9  A    between atoms: _16  and  _17
REMARK   10  A    between atoms: _17  and  _18
REMARK   11  A    between atoms: _27  and  _29
REMARK   12  A    between atoms: _29  and  _30
REMARK   13  A    between atoms: _29  and  _32
REMARK   14  A    between atoms: _32  and  _33
REMARK   15  A    between atoms: _38  and  _39
REMARK   16  A    between atoms: _41  and  _43
REMARK   17  A    between atoms: _43  and  _44
REMARK   18  A    between atoms: _43  and  _46
REMARK   19  A    between atoms: _46  and  _47
REMARK   20  A    between atoms: _53  and  _55
REMARK   21  A    between atoms: _55  and  _56
REMARK   22  A    between atoms: _55  and  _58
REMARK   23  A    between atoms: _61  and  _63
REMARK   24  A    between atoms: _63  and  _64
REMARK   25  A    between atoms: _63  and  _66
REMARK   26  A    between atoms: _66  and  _67
REMARK   27  A    between atoms: _70  and  _72
REMARK   28  A    between atoms: _72  and  _73
REMARK   29  A    between atoms: _72  and  _75
REMARK   30  A    between atoms: _75  and  _76
REMARK   31  A    between atoms: _82  and  _84
REMARK   32  A    between atoms: _84  and  _85
REMARK   33  A    between atoms: _84  and  _87
REMARK   34  A    between atoms: _87  and  _88
REMARK   35  A    between atoms: _90  and  _92
REMARK   36  A    between atoms: _92  and  _93
REMARK   37  A    between atoms: _92  and  _95
REMARK   38  A    between atoms: _98  and  _100
REMARK   39  A    between atoms: _100  and  _101
REMARK   40  A    between atoms: _100  and  _103
REMARK   41  A    between atoms: _103  and  _104
REMARK   42  A    between atoms: _110  and  _112
REMARK   43  A    between atoms: _112  and  _113
REMARK   44  A    between atoms: _112  and  _115
REMARK   45  A    between atoms: _118  and  _120
REMARK   46  A    between atoms: _120  and  _121
REMARK   47  A    between atoms: _120  and  _123
REMARK   48  A    between atoms: _123  and  _124
REMARK   49  A    between atoms: _129  and  _130
REMARK   50  A    between atoms: _132  and  _134
REMARK   51  A    between atoms: _134  and  _135
REMARK   52  A    between atoms: _134  and  _137
REMARK   53  A    between atoms: _137  and  _138
REMARK   54  A    between atoms: _138  and  _139
REMARK   55  A    between atoms: _141  and  _143
REMARK   56  A    between atoms: _143  and  _144
REMARK   57  A    between atoms: _143  and  _146
REMARK   58  A    between atoms: _146  and  _147
REMARK   59  A    between atoms: _147  and  _148
REMARK   60  A    between atoms: _151  and  _153
REMARK   61  A    between atoms: _153  and  _154
REMARK   62  A    between atoms: _156  and  _158
REMARK   63  A    between atoms: _158  and  _159
REMARK   64  A    between atoms: _158  and  _161
REMARK   65  A    between atoms: _161  and  _162
REMARK   66  A    between atoms: _162  and  _163
REMARK   67  A    between atoms: _166  and  _168
REMARK   68  A    between atoms: _168  and  _169
REMARK   69  A    between atoms: _168  and  _171
REMARK   70  A    between atoms: _171  and  _172
REMARK   71  A    between atoms: _177  and  _178
REMARK   72  A    between atoms: _180  and  _182
REMARK   73  A    between atoms: _182  and  _183
REMARK   74  A    between atoms: _182  and  _185
REMARK   75  A    between atoms: _185  and  _186
REMARK   76  A    between atoms: _196  and  _198
REMARK   77  A    between atoms: _198  and  _199
REMARK   78  A    between atoms: _198  and  _201
REMARK   79  A    between atoms: _201  and  _202
REMARK   80  A    between atoms: _202  and  _203
REMARK   81  A    between atoms: _203  and  _204
REMARK   82  A    between atoms: _213  and  _215
REMARK   83  A    between atoms: _215  and  _216
REMARK   84  A    between atoms: _215  and  _218
REMARK   85  A    between atoms: _218  and  _219
REMARK   86  A    between atoms: _219  and  _220
REMARK   87  A    between atoms: _223  and  _225
REMARK   88  A    between atoms: _225  and  _226
REMARK   89  A    between atoms: _225  and  _228
REMARK   90  A    between atoms: _228  and  _229
REMARK   91  A    between atoms: _229  and  _230
REMARK   92  A    between atoms: _235  and  _237
REMARK   93  A    between atoms: _237  and  _238
REMARK   94  A    between atoms: _237  and  _240
REMARK   95  A    between atoms: _240  and  _241
REMARK   96  A    between atoms: _241  and  _242
REMARK   97  A    between atoms: _242  and  _243
REMARK   98  A    between atoms: _243  and  _244
REMARK   99  A    between atoms: _248  and  _250
REMARK  100  A    between atoms: _250  and  _251
REMARK  101  A    between atoms: _254  and  _256
REMARK  102  A    between atoms: _256  and  _257
REMARK  103  A    between atoms: _259  and  _261
REMARK  104  A    between atoms: _261  and  _262
REMARK  105  A    between atoms: _261  and  _264
REMARK  106  A    between atoms: _264  and  _265
REMARK  107  A    between atoms: _270  and  _272
REMARK  108  A    between atoms: _272  and  _273
REMARK  109  A    between atoms: _272  and  _275
REMARK  110  A    between atoms: _275  and  _276
REMARK  111  A    between atoms: _276  and  _277
REMARK  112  A    between atoms: _280  and  _282
REMARK  113  A    between atoms: _282  and  _283
REMARK  114  A    between atoms: _282  and  _285
REMARK  115  A    between atoms: _285  and  _286
REMARK  116  A    between atoms: _288  and  _290
REMARK  117  A    between atoms: _290  and  _291
REMARK  118  A    between atoms: _290  and  _293
REMARK  119  A    between atoms: _293  and  _294
REMARK  120  A    between atoms: _300  and  _302
REMARK  121  A    between atoms: _302  and  _303
REMARK  122  A    between atoms: _302  and  _305
REMARK  123  A    between atoms: _308  and  _310
REMARK  124  A    between atoms: _310  and  _311
REMARK  125  A    between atoms: _310  and  _313
REMARK  126  A    between atoms: _313  and  _314
REMARK  127  A    between atoms: _317  and  _319
REMARK  128  A    between atoms: _319  and  _320
REMARK  129  A    between atoms: _319  and  _322
REMARK  130  A    between atoms: _322  and  _323
REMARK  131  A    between atoms: _326  and  _328
REMARK  132  A    between atoms: _328  and  _329
REMARK  133  A    between atoms: _328  and  _331
REMARK  134  A    between atoms: _331  and  _332
REMARK  135  A    between atoms: _335  and  _337
REMARK  136  A    between atoms: _337  and  _338
REMARK  137  A    between atoms: _337  and  _340
REMARK  138  A    between atoms: _340  and  _341
REMARK  139  A    between atoms: _344  and  _346
REMARK  140  A    between atoms: _346  and  _347
REMARK  141  A    between atoms: _346  and  _349
REMARK  142  A    between atoms: _349  and  _350
REMARK  143  A    between atoms: _355  and  _356
REMARK  144  A    between atoms: _358  and  _360
REMARK  145  A    between atoms: _360  and  _361
REMARK  146  A    between atoms: _360  and  _363
REMARK  147  A    between atoms: _363  and  _364
REMARK  148  A    between atoms: _369  and  _370
REMARK  149  A    between atoms: _372  and  _374
REMARK  150  A    between atoms: _374  and  _375
REMARK  151  A    between atoms: _374  and  _377
REMARK  152  A    between atoms: _377  and  _378
REMARK  153  A    between atoms: _381  and  _383
REMARK  154  A    between atoms: _383  and  _384
REMARK  155  A    between atoms: _383  and  _386
REMARK  156  A    between atoms: _386  and  _387
REMARK  157  A    between atoms: _387  and  _388
REMARK  158  A    between atoms: _393  and  _395
REMARK  159  A    between atoms: _395  and  _396
REMARK  160  A    between atoms: _395  and  _398
REMARK  161  A    between atoms: _401  and  _403
REMARK  162  A    between atoms: _403  and  _404
REMARK  163  A    between atoms: _403  and  _406
REMARK  164  A    between atoms: _406  and  _407
REMARK  165  A    between atoms: _410  and  _412
REMARK  166  A    between atoms: _412  and  _413
REMARK  167  A    between atoms: _412  and  _415
REMARK  168  A    between atoms: _415  and  _416
REMARK  169  A    between atoms: _418  and  _420
REMARK  170  A    between atoms: _420  and  _421
REMARK  171  A    between atoms: _423  and  _425
REMARK  172  A    between atoms: _425  and  _426
REMARK  173  A    between atoms: _425  and  _428
REMARK  174  A    between atoms: _428  and  _429
REMARK  175  A    between atoms: _434  and  _435
REMARK  176  A    between atoms: _437  and  _439
REMARK  177  A    between atoms: _439  and  _440
REMARK  178  A    between atoms: _439  and  _442
REMARK  179  A    between atoms: _442  and  _443
REMARK  180  A    between atoms: _443  and  _444
REMARK  181  A    between atoms: _449  and  _451
REMARK  182  A    between atoms: _451  and  _452
REMARK  183  A    between atoms: _451  and  _454
REMARK  184  A    between atoms: _454  and  _455
REMARK  185  A    between atoms: _455  and  _456
REMARK  186  A    between atoms: _461  and  _463
REMARK  187  A    between atoms: _463  and  _464
REMARK  188  A    between atoms: _463  and  _466
REMARK  189  A    between atoms: _466  and  _467
REMARK  190  A    between atoms: _472  and  _473
REMARK  191  A    between atoms: _475  and  _477
REMARK  192  A    between atoms: _477  and  _478
REMARK  193  A    between atoms: _481  and  _483
REMARK  194  A    between atoms: _483  and  _484
REMARK  195  A    between atoms: _483  and  _486
REMARK  196  A    between atoms: _486  and  _487
REMARK  197  A    between atoms: _492  and  _493
REMARK  198  A    between atoms: _495  and  _497
REMARK  199  A    between atoms: _497  and  _498
REMARK  200  A    between atoms: _497  and  _500
REMARK  201  A    between atoms: _500  and  _501
REMARK  202  A    between atoms: _506  and  _507
REMARK  203  A    between atoms: _509  and  _511
REMARK  204  A    between atoms: _511  and  _512
REMARK  205  A    between atoms: _511  and  _514
REMARK  206  A    between atoms: _514  and  _515
REMARK  207  A    between atoms: _518  and  _520
REMARK  208  A    between atoms: _520  and  _521
REMARK  209  A    between atoms: _520  and  _523
REMARK  210  A    between atoms: _523  and  _524
REMARK  211  A    between atoms: _534  and  _536
REMARK  212  A    between atoms: _536  and  _537
REMARK  213  A    between atoms: _540  and  _542
REMARK  214  A    between atoms: _542  and  _543
REMARK  215  A    between atoms: _546  and  _548
REMARK  216  A    between atoms: _548  and  _549
REMARK  217  A    between atoms: _548  and  _551
REMARK  218  A    between atoms: _551  and  _552
REMARK  219  A    between atoms: _555  and  _557
REMARK  220  A    between atoms: _557  and  _558
REMARK  221  A    between atoms: _557  and  _560
REMARK  222  A    between atoms: _560  and  _561
REMARK  223  A    between atoms: _564  and  _566
REMARK  224  A    between atoms: _566  and  _567
REMARK  225  A    between atoms: _566  and  _569
REMARK  226  A    between atoms: _569  and  _570
REMARK  227  A    between atoms: _573  and  _575
REMARK  228  A    between atoms: _575  and  _576
REMARK  229  A    between atoms: _575  and  _578
REMARK  230  A    between atoms: _578  and  _579
REMARK  231  A    between atoms: _579  and  _580
REMARK  232  A    between atoms: _580  and  _581
REMARK  233  A    between atoms: _581  and  _582
REMARK  234  A    between atoms: _586  and  _588
REMARK  235  A    between atoms: _588  and  _589
REMARK  236  A    between atoms: _588  and  _591
REMARK  237  A    between atoms: _591  and  _592
REMARK  238  A    between atoms: _597  and  _599
REMARK  239  A    between atoms: _599  and  _600
REMARK  240  A    between atoms: _599  and  _602
REMARK  241  A    between atoms: _602  and  _603
REMARK  242  A    between atoms: _603  and  _604
REMARK  243  A    between atoms: _604  and  _605
REMARK  244  A    between atoms: _605  and  _606
REMARK  245  A    between atoms: _610  and  _612
REMARK  246  A    between atoms: _612  and  _613
REMARK  247  A    between atoms: _612  and  _615
REMARK  248  A    between atoms: _615  and  _616
REMARK  249  A    between atoms: _626  and  _628
REMARK  250  A    between atoms: _628  and  _629
REMARK  251  A    between atoms: _628  and  _631
REMARK  252  A    between atoms: _631  and  _632
REMARK  253  A    between atoms: _632  and  _633
REMARK  254  A    between atoms: _636  and  _638
REMARK  255  A    between atoms: _638  and  _639
REMARK  256  A    between atoms: _642  and  _644
REMARK  257  A    between atoms: _644  and  _645
REMARK  258  A    between atoms: _647  and  _649
REMARK  259  A    between atoms: _649  and  _650
REMARK  260  A    between atoms: _649  and  _652
REMARK  261  A    between atoms: _652  and  _653
REMARK  262  A    between atoms: _653  and  _654
REMARK  263  A    between atoms: _657  and  _659
REMARK  264  A    between atoms: _659  and  _660
REMARK  265  A    between atoms: _663  and  _665
REMARK  266  A    between atoms: _665  and  _666
REMARK  267  A    between atoms: _665  and  _668
REMARK  268  A    between atoms: _668  and  _669
REMARK  269  A    between atoms: _669  and  _670
REMARK  270  A    between atoms: _673  and  _675
REMARK  271  A    between atoms: _675  and  _676
REMARK  272  A    between atoms: _675  and  _678
REMARK  273  A    between atoms: _678  and  _679
REMARK  274  A    between atoms: _679  and  _680
REMARK  275  A    between atoms: _680  and  _681
REMARK  276  A    between atoms: _690  and  _692
REMARK  277  A    between atoms: _692  and  _693
REMARK  278  A    between atoms: _692  and  _695
REMARK  279  A    between atoms: _695  and  _696
REMARK  280  A    between atoms: _699  and  _701
REMARK  281  A    between atoms: _701  and  _702
REMARK  282  A    between atoms: _701  and  _704
REMARK  283  A    between atoms: _704  and  _705
REMARK  284  A    between atoms: _705  and  _706
REMARK  285  A    between atoms: _706  and  _707
REMARK  286  A    between atoms: _716  and  _718
REMARK  287  A    between atoms: _718  and  _719
REMARK  288  A    between atoms: _722  and  _724
REMARK  289  A    between atoms: _724  and  _725
REMARK  290  A    between atoms: _724  and  _727
REMARK  291  A    between atoms: _727  and  _728
REMARK  292  A    between atoms: _733  and  _734
REMARK  293  A    between atoms: _736  and  _738
REMARK  294  A    between atoms: _738  and  _739
REMARK  295  A    between atoms: _738  and  _741
REMARK  296  A    between atoms: _741  and  _742
REMARK  297  A    between atoms: _745  and  _747
REMARK  298  A    between atoms: _747  and  _748
REMARK  299  A    between atoms: _747  and  _750
REMARK  300  A    between atoms: _750  and  _751
REMARK  301  A    between atoms: _754  and  _756
REMARK  302  A    between atoms: _756  and  _757
REMARK  303  A    between atoms: _756  and  _759
REMARK  304  A    between atoms: _761  and  _763
REMARK  305  A    between atoms: _763  and  _764
REMARK  306  A    between atoms: _763  and  _766
REMARK  307  A    between atoms: _769  and  _771
REMARK  308  A    between atoms: _771  and  _772
REMARK  309  A    between atoms: _771  and  _774
REMARK  310  A    between atoms: _774  and  _775
REMARK  311  A    between atoms: _775  and  _776
REMARK  312  A    between atoms: _779  and  _781
REMARK  313  A    between atoms: _781  and  _782
REMARK  314  A    between atoms: _781  and  _784
REMARK  315  A    between atoms: _784  and  _785
REMARK  316  A    between atoms: _795  and  _797
REMARK  317  A    between atoms: _797  and  _798
REMARK  318  A    between atoms: _797  and  _800
REMARK  319  A    between atoms: _800  and  _801
REMARK  320  A    between atoms: _804  and  _806
REMARK  321  A    between atoms: _806  and  _807
REMARK  322  A    between atoms: _806  and  _809
REMARK  323  A    between atoms: _809  and  _810
REMARK  324  A    between atoms: _810  and  _811
REMARK  325  A    between atoms: _811  and  _812
REMARK  326  A    between atoms: _821  and  _823
REMARK  327  A    between atoms: _823  and  _824
REMARK  328  A    between atoms: _823  and  _826
REMARK  329  A    between atoms: _826  and  _827
REMARK  330  A    between atoms: _832  and  _833
REMARK                            x       y       z     vdW  Elec       q    Type
REMARK                         _______ _______ _______ _____ _____    ______ ____
ROOT
ATOM      1  O   HOH     1      43.017  67.404 -10.643  0.00  0.00    +0.000 OA
ENDROOT
TORSDOF 0
REMARK  Name = ../refined-set-2016/1fzm/1fzm_pocket.pdb
REMARK  330 active torsions:
REMARK  status: ('A' for Active; 'I' for Inactive)
REMARK    1  A    between atoms: _1  and  _3
REMARK    2  A    between atoms: _3  and  _4
REMARK    3  A    between atoms: _3  and  _6
REMARK    4  A    between atoms: _6  and  _7
REMARK    5  A    between atoms: _10  and  _12
REMARK    6  A    between atoms: _12  and  _13
REMARK    7  A    between atoms: _12  and  _15
REMARK    8  A    between atoms: _15  and  _16
REMARK    9  A    between atoms: _16  and  _17
REMARK   10  A    between atoms: _17  and  _18
REMARK   11  A    between atoms: _27  and  _29
REMARK   12  A    between atoms: _29  and  _30
REMARK   13  A    between atoms: _29  and  _32
REMARK   14  A    between atoms: _32  and  _33
REMARK   15  A    between atoms: _38  and  _39
REMARK   16  A    between atoms: _41  and  _43
REMARK   17  A    between atoms: _43  and  _44
REMARK   18  A    between atoms: _43  and  _46
REMARK   19  A    between atoms: _46  and  _47
REMARK   20  A    between atoms: _53  and  _55
REMARK   21  A    between atoms: _55  and  _56
REMARK   22  A    between atoms: _55  and  _58
REMARK   23  A    between atoms: _61  and  _63
REMARK   24  A    between atoms: _63  and  _64
REMARK   25  A    between atoms: _63  and  _66
REMARK   26  A    between atoms: _66  and  _67
REMARK   27  A    between atoms: _70  and  _72
REMARK   28  A    between atoms: _72  and  _73
REMARK   29  A    between atoms: _72  and  _75
REMARK   30  A    between atoms: _75  and  _76
REMARK   31  A    between atoms: _82  and  _84
REMARK   32  A    between atoms: _84  and  _85
REMARK   33  A    between atoms: _84  and  _87
REMARK   34  A    between atoms: _87  and  _88
REMARK   35  A    between atoms: _90  and  _92
REMARK   36  A    between atoms: _92  and  _93
REMARK   37  A    between atoms: _92  and  _95
REMARK   38  A    between atoms: _98  and  _100
REMARK   39  A    between atoms: _100  and  _101
REMARK   40  A    between atoms: _100  and  _103
REMARK   41  A    between atoms: _103  and  _104
REMARK   42  A    between atoms: _110  and  _112
REMARK   43  A    between atoms: _112  and  _113
REMARK   44  A    between atoms: _112  and  _115
REMARK   45  A    between atoms: _118  and  _120
REMARK   46  A    between atoms: _120  and  _121
REMARK   47  A    between atoms: _120  and  _123
REMARK   48  A    between atoms: _123  and  _124
REMARK   49  A    between atoms: _129  and  _130
REMARK   50  A    between atoms: _132  and  _134
REMARK   51  A    between atoms: _134  and  _135
REMARK   52  A    between atoms: _134  and  _137
REMARK   53  A    between atoms: _137  and  _138
REMARK   54  A    between atoms: _138  and  _139
REMARK   55  A    between atoms: _141  and  _143
REMARK   56  A    between atoms: _143  and  _144
REMARK   57  A    between atoms: _143  and  _146
REMARK   58  A    between atoms: _146  and  _147
REMARK   59  A    between atoms: _147  and  _148
REMARK   60  A    between atoms: _151  and  _153
REMARK   61  A    between atoms: _153  and  _154
REMARK   62  A    between atoms: _156  and  _158
REMARK   63  A    between atoms: _158  and  _159
REMARK   64  A    between atoms: _158  and  _161
REMARK   65  A    between atoms: _161  and  _162
REMARK   66  A    between atoms: _162  and  _163
REMARK   67  A    between atoms: _166  and  _168
REMARK   68  A    between atoms: _168  and  _169
REMARK   69  A    between atoms: _168  and  _171
REMARK   70  A    between atoms: _171  and  _172
REMARK   71  A    between atoms: _177  and  _178
REMARK   72  A    between atoms: _180  and  _182
REMARK   73  A    between atoms: _182  and  _183
REMARK   74  A    between atoms: _182  and  _185
REMARK   75  A    between atoms: _185  and  _186
REMARK   76  A    between atoms: _196  and  _198
REMARK   77  A    between atoms: _198  and  _199
REMARK   78  A    between atoms: _198  and  _201
REMARK   79  A    between atoms: _201  and  _202
REMARK   80  A    between atoms: _202  and  _203
REMARK   81  A    between atoms: _203  and  _204
REMARK   82  A    between atoms: _213  and  _215
REMARK   83  A    between atoms: _215  and  _216
REMARK   84  A    between atoms: _215  and  _218
REMARK   85  A    between atoms: _218  and  _219
REMARK   86  A    between atoms: _219  and  _220
REMARK   87  A    between atoms: _223  and  _225
REMARK   88  A    between atoms: _225  and  _226
REMARK   89  A    between atoms: _225  and  _228
REMARK   90  A    between atoms: _228  and  _229
REMARK   91  A    between atoms: _229  and  _230
REMARK   92  A    between atoms: _235  and  _237
REMARK   93  A    between atoms: _237  and  _238
REMARK   94  A    between atoms: _237  and  _240
REMARK   95  A    between atoms: _240  and  _241
REMARK   96  A    between atoms: _241  and  _242
REMARK   97  A    between atoms: _242  and  _243
REMARK   98  A    between atoms: _243  and  _244
REMARK   99  A    between atoms: _248  and  _250
REMARK  100  A    between atoms: _250  and  _251
REMARK  101  A    between atoms: _254  and  _256
REMARK  102  A    between atoms: _256  and  _257
REMARK  103  A    between atoms: _259  and  _261
REMARK  104  A    between atoms: _261  and  _262
REMARK  105  A    between atoms: _261  and  _264
REMARK  106  A    between atoms: _264  and  _265
REMARK  107  A    between atoms: _270  and  _272
REMARK  108  A    between atoms: _272  and  _273
REMARK  109  A    between atoms: _272  and  _275
REMARK  110  A    between atoms: _275  and  _276
REMARK  111  A    between atoms: _276  and  _277
REMARK  112  A    between atoms: _280  and  _282
REMARK  113  A    between atoms: _282  and  _283
REMARK  114  A    between atoms: _282  and  _285
REMARK  115  A    between atoms: _285  and  _286
REMARK  116  A    between atoms: _288  and  _290
REMARK  117  A    between atoms: _290  and  _291
REMARK  118  A    between atoms: _290  and  _293
REMARK  119  A    between atoms: _293  and  _294
REMARK  120  A    between atoms: _300  and  _302
REMARK  121  A    between atoms: _302  and  _303
REMARK  122  A    between atoms: _302  and  _305
REMARK  123  A    between atoms: _308  and  _310
REMARK  124  A    between atoms: _310  and  _311
REMARK  125  A    between atoms: _310  and  _313
REMARK  126  A    between atoms: _313  and  _314
REMARK  127  A    between atoms: _317  and  _319
REMARK  128  A    between atoms: _319  and  _320
REMARK  129  A    between atoms: _319  and  _322
REMARK  130  A    between atoms: _322  and  _323
REMARK  131  A    between atoms: _326  and  _328
REMARK  132  A    between atoms: _328  and  _329
REMARK  133  A    between atoms: _328  and  _331
REMARK  134  A    between atoms: _331  and  _332
REMARK  135  A    between atoms: _335  and  _337
REMARK  136  A    between atoms: _337  and  _338
REMARK  137  A    between atoms: _337  and  _340
REMARK  138  A    between atoms: _340  and  _341
REMARK  139  A    between atoms: _344  and  _346
REMARK  140  A    between atoms: _346  and  _347
REMARK  141  A    between atoms: _346  and  _349
REMARK  142  A    between atoms: _349  and  _350
REMARK  143  A    between atoms: _355  and  _356
REMARK  144  A    between atoms: _358  and  _360
REMARK  145  A    between atoms: _360  and  _361
REMARK  146  A    between atoms: _360  and  _363
REMARK  147  A    between atoms: _363  and  _364
REMARK  148  A    between atoms: _369  and  _370
REMARK  149  A    between atoms: _372  and  _374
REMARK  150  A    between atoms: _374  and  _375
REMARK  151  A    between atoms: _374  and  _377
REMARK  152  A    between atoms: _377  and  _378
REMARK  153  A    between atoms: _381  and  _383
REMARK  154  A    between atoms: _383  and  _384
REMARK  155  A    between atoms: _383  and  _386
REMARK  156  A    between atoms: _386  and  _387
REMARK  157  A    between atoms: _387  and  _388
REMARK  158  A    between atoms: _393  and  _395
REMARK  159  A    between atoms: _395  and  _396
REMARK  160  A    between atoms: _395  and  _398
REMARK  161  A    between atoms: _401  and  _403
REMARK  162  A    between atoms: _403  and  _404
REMARK  163  A    between atoms: _403  and  _406
REMARK  164  A    between atoms: _406  and  _407
REMARK  165  A    between atoms: _410  and  _412
REMARK  166  A    between atoms: _412  and  _413
REMARK  167  A    between atoms: _412  and  _415
REMARK  168  A    between atoms: _415  and  _416
REMARK  169  A    between atoms: _418  and  _420
REMARK  170  A    between atoms: _420  and  _421
REMARK  171  A    between atoms: _423  and  _425
REMARK  172  A    between atoms: _425  and  _426
REMARK  173  A    between atoms: _425  and  _428
REMARK  174  A    between atoms: _428  and  _429
REMARK  175  A    between atoms: _434  and  _435
REMARK  176  A    between atoms: _437  and  _439
REMARK  177  A    between atoms: _439  and  _440
REMARK  178  A    between atoms: _439  and  _442
REMARK  179  A    between atoms: _442  and  _443
REMARK  180  A    between atoms: _443  and  _444
REMARK  181  A    between atoms: _449  and  _451
REMARK  182  A    between atoms: _451  and  _452
REMARK  183  A    between atoms: _451  and  _454
REMARK  184  A    between atoms: _454  and  _455
REMARK  185  A    between atoms: _455  and  _456
REMARK  186  A    between atoms: _461  and  _463
REMARK  187  A    between atoms: _463  and  _464
REMARK  188  A    between atoms: _463  and  _466
REMARK  189  A    between atoms: _466  and  _467
REMARK  190  A    between atoms: _472  and  _473
REMARK  191  A    between atoms: _475  and  _477
REMARK  192  A    between atoms: _477  and  _478
REMARK  193  A    between atoms: _481  and  _483
REMARK  194  A    between atoms: _483  and  _484
REMARK  195  A    between atoms: _483  and  _486
REMARK  196  A    between atoms: _486  and  _487
REMARK  197  A    between atoms: _492  and  _493
REMARK  198  A    between atoms: _495  and  _497
REMARK  199  A    between atoms: _497  and  _498
REMARK  200  A    between atoms: _497  and  _500
REMARK  201  A    between atoms: _500  and  _501
REMARK  202  A    between atoms: _506  and  _507
REMARK  203  A    between atoms: _509  and  _511
REMARK  204  A    between atoms: _511  and  _512
REMARK  205  A    between atoms: _511  and  _514
REMARK  206  A    between atoms: _514  and  _515
REMARK  207  A    between atoms: _518  and  _520
REMARK  208  A    between atoms: _520  and  _521
REMARK  209  A    between atoms: _520  and  _523
REMARK  210  A    between atoms: _523  and  _524
REMARK  211  A    between atoms: _534  and  _536
REMARK  212  A    between atoms: _536  and  _537
REMARK  213  A    between atoms: _540  and  _542
REMARK  214  A    between atoms: _542  and  _543
REMARK  215  A    between atoms: _546  and  _548
REMARK  216  A    between atoms: _548  and  _549
REMARK  217  A    between atoms: _548  and  _551
REMARK  218  A    between atoms: _551  and  _552
REMARK  219  A    between atoms: _555  and  _557
REMARK  220  A    between atoms: _557  and  _558
REMARK  221  A    between atoms: _557  and  _560
REMARK  222  A    between atoms: _560  and  _561
REMARK  223  A    between atoms: _564  and  _566
REMARK  224  A    between atoms: _566  and  _567
REMARK  225  A    between atoms: _566  and  _569
REMARK  226  A    between atoms: _569  and  _570
REMARK  227  A    between atoms: _573  and  _575
REMARK  228  A    between atoms: _575  and  _576
REMARK  229  A    between atoms: _575  and  _578
REMARK  230  A    between atoms: _578  and  _579
REMARK  231  A    between atoms: _579  and  _580
REMARK  232  A    between atoms: _580  and  _581
REMARK  233  A    between atoms: _581  and  _582
REMARK  234  A    between atoms: _586  and  _588
REMARK  235  A    between atoms: _588  and  _589
REMARK  236  A    between atoms: _588  and  _591
REMARK  237  A    between atoms: _591  and  _592
REMARK  238  A    between atoms: _597  and  _599
REMARK  239  A    between atoms: _599  and  _600
REMARK  240  A    between atoms: _599  and  _602
REMARK  241  A    between atoms: _602  and  _603
REMARK  242  A    between atoms: _603  and  _604
REMARK  243  A    between atoms: _604  and  _605
REMARK  244  A    between atoms: _605  and  _606
REMARK  245  A    between atoms: _610  and  _612
REMARK  246  A    between atoms: _612  and  _613
REMARK  247  A    between atoms: _612  and  _615
REMARK  248  A    between atoms: _615  and  _616
REMARK  249  A    between atoms: _626  and  _628
REMARK  250  A    between atoms: _628  and  _629
REMARK  251  A    between atoms: _628  and  _631
REMARK  252  A    between atoms: _631  and  _632
REMARK  253  A    between atoms: _632  and  _633
REMARK  254  A    between atoms: _636  and  _638
REMARK  255  A    between atoms: _638  and  _639
REMARK  256  A    between atoms: _642  and  _644
REMARK  257  A    between atoms: _644  and  _645
REMARK  258  A    between atoms: _647  and  _649
REMARK  259  A    between atoms: _649  and  _650
REMARK  260  A    between atoms: _649  and  _652
REMARK  261  A    between atoms: _652  and  _653
REMARK  262  A    between atoms: _653  and  _654
REMARK  263  A    between atoms: _657  and  _659
REMARK  264  A    between atoms: _659  and  _660
REMARK  265  A    between atoms: _663  and  _665
REMARK  266  A    between atoms: _665  and  _666
REMARK  267  A    between atoms: _665  and  _668
REMARK  268  A    between atoms: _668  and  _669
REMARK  269  A    between atoms: _669  and  _670
REMARK  270  A    between atoms: _673  and  _675
REMARK  271  A    between atoms: _675  and  _676
REMARK  272  A    between atoms: _675  and  _678
REMARK  273  A    between atoms: _678  and  _679
REMARK  274  A    between atoms: _679  and  _680
REMARK  275  A    between atoms: _680  and  _681
REMARK  276  A    between atoms: _690  and  _692
REMARK  277  A    between atoms: _692  and  _693
REMARK  278  A    between atoms: _692  and  _695
REMARK  279  A    between atoms: _695  and  _696
REMARK  280  A    between atoms: _699  and  _701
REMARK  281  A    between atoms: _701  and  _702
REMARK  282  A    between atoms: _701  and  _704
REMARK  283  A    between atoms: _704  and  _705
REMARK  284  A    between atoms: _705  and  _706
REMARK  285  A    between atoms: _706  and  _707
REMARK  286  A    between atoms: _716  and  _718
REMARK  287  A    between atoms: _718  and  _719
REMARK  288  A    between atoms: _722  and  _724
REMARK  289  A    between atoms: _724  and  _725
REMARK  290  A    between atoms: _724  and  _727
REMARK  291  A    between atoms: _727  and  _728
REMARK  292  A    between atoms: _733  and  _734
REMARK  293  A    between atoms: _736  and  _738
REMARK  294  A    between atoms: _738  and  _739
REMARK  295  A    between atoms: _738  and  _741
REMARK  296  A    between atoms: _741  and  _742
REMARK  297  A    between atoms: _745  and  _747
REMARK  298  A    between atoms: _747  and  _748
REMARK  299  A    between atoms: _747  and  _750
REMARK  300  A    between atoms: _750  and  _751
REMARK  301  A    between atoms: _754  and  _756
REMARK  302  A    between atoms: _756  and  _757
REMARK  303  A    between atoms: _756  and  _759
REMARK  304  A    between atoms: _761  and  _763
REMARK  305  A    between atoms: _763  and  _764
REMARK  306  A    between atoms: _763  and  _766
REMARK  307  A    between atoms: _769  and  _771
REMARK  308  A    between atoms: _771  and  _772
REMARK  309  A    between atoms: _771  and  _774
REMARK  310  A    between atoms: _774  and  _775
REMARK  311  A    between atoms: _775  and  _776
REMARK  312  A    between atoms: _779  and  _781
REMARK  313  A    between atoms: _781  and  _782
REMARK  314  A    between atoms: _781  and  _784
REMARK  315  A    between atoms: _784  and  _785
REMARK  316  A    between atoms: _795  and  _797
REMARK  317  A    between atoms: _797  and  _798
REMARK  318  A    between atoms: _797  and  _800
REMARK  319  A    between atoms: _800  and  _801
REMARK  320  A    between atoms: _804  and  _806
REMARK  321  A    between atoms: _806  and  _807
REMARK  322  A    between atoms: _806  and  _809
REMARK  323  A    between atoms: _809  and  _810
REMARK  324  A    between atoms: _810  and  _811
REMARK  325  A    between atoms: _811  and  _812
REMARK  326  A    between atoms: _821  and  _823
REMARK  327  A    between atoms: _823  and  _824
REMARK  328  A    between atoms: _823  and  _826
REMARK  329  A    between atoms: _826  and  _827
REMARK  330  A    between atoms: _832  and  _833
REMARK                            x       y       z     vdW  Elec       q    Type
REMARK                         _______ _______ _______ _____ _____    ______ ____
ROOT
ATOM      1  O   HOH     1      47.964  62.681  -0.679  0.00  0.00    +0.000 OA
ENDROOT
TORSDOF 0
