REMARK  Name = ../refined-set-2016/2wva/2wva_pocket.pdb
REMARK  296 active torsions:
REMARK  status: ('A' for Active; 'I' for Inactive)
REMARK    1  A    between atoms: _1  and  _3
REMARK    2  A    between atoms: _3  and  _4
REMARK    3  A    between atoms: _3  and  _6
REMARK    4  A    between atoms: _6  and  _7
REMARK    5  A    between atoms: _10  and  _12
REMARK    6  A    between atoms: _12  and  _13
REMARK    7  A    between atoms: _12  and  _15
REMARK    8  A    between atoms: _15  and  _16
REMARK    9  A    between atoms: _22  and  _24
REMARK   10  A    between atoms: _24  and  _25
REMARK   11  A    between atoms: _24  and  _27
REMARK   12  A    between atoms: _27  and  _28
REMARK   13  A    between atoms: _31  and  _33
REMARK   14  A    between atoms: _33  and  _34
REMARK   15  A    between atoms: _33  and  _36
REMARK   16  A    between atoms: _36  and  _37
REMARK   17  A    between atoms: _42  and  _43
REMARK   18  A    between atoms: _45  and  _47
REMARK   19  A    between atoms: _47  and  _48
REMARK   20  A    between atoms: _47  and  _50
REMARK   21  A    between atoms: _50  and  _51
REMARK   22  A    between atoms: _56  and  _58
REMARK   23  A    between atoms: _58  and  _59
REMARK   24  A    between atoms: _58  and  _61
REMARK   25  A    between atoms: _61  and  _62
REMARK   26  A    between atoms: _62  and  _63
REMARK   27  A    between atoms: _66  and  _68
REMARK   28  A    between atoms: _68  and  _69
REMARK   29  A    between atoms: _68  and  _71
REMARK   30  A    between atoms: _71  and  _72
REMARK   31  A    between atoms: _75  and  _77
REMARK   32  A    between atoms: _77  and  _78
REMARK   33  A    between atoms: _80  and  _82
REMARK   34  A    between atoms: _82  and  _83
REMARK   35  A    between atoms: _82  and  _85
REMARK   36  A    between atoms: _85  and  _86
REMARK   37  A    between atoms: _89  and  _91
REMARK   38  A    between atoms: _91  and  _92
REMARK   39  A    between atoms: _91  and  _94
REMARK   40  A    between atoms: _94  and  _95
REMARK   41  A    between atoms: _97  and  _99
REMARK   42  A    between atoms: _99  and  _100
REMARK   43  A    between atoms: _99  and  _102
REMARK   44  A    between atoms: _102  and  _103
REMARK   45  A    between atoms: _113  and  _115
REMARK   46  A    between atoms: _115  and  _116
REMARK   47  A    between atoms: _115  and  _118
REMARK   48  A    between atoms: _118  and  _119
REMARK   49  A    between atoms: _125  and  _127
REMARK   50  A    between atoms: _127  and  _128
REMARK   51  A    between atoms: _127  and  _130
REMARK   52  A    between atoms: _130  and  _131
REMARK   53  A    between atoms: _136  and  _138
REMARK   54  A    between atoms: _138  and  _139
REMARK   55  A    between atoms: _138  and  _141
REMARK   56  A    between atoms: _141  and  _142
REMARK   57  A    between atoms: _142  and  _143
REMARK   58  A    between atoms: _146  and  _148
REMARK   59  A    between atoms: _148  and  _149
REMARK   60  A    between atoms: _148  and  _151
REMARK   61  A    between atoms: _151  and  _152
REMARK   62  A    between atoms: _162  and  _164
REMARK   63  A    between atoms: _164  and  _165
REMARK   64  A    between atoms: _167  and  _169
REMARK   65  A    between atoms: _169  and  _170
REMARK   66  A    between atoms: _169  and  _172
REMARK   67  A    between atoms: _172  and  _173
REMARK   68  A    between atoms: _178  and  _180
REMARK   69  A    between atoms: _180  and  _181
REMARK   70  A    between atoms: _180  and  _183
REMARK   71  A    between atoms: _183  and  _184
REMARK   72  A    between atoms: _187  and  _189
REMARK   73  A    between atoms: _189  and  _190
REMARK   74  A    between atoms: _192  and  _194
REMARK   75  A    between atoms: _194  and  _195
REMARK   76  A    between atoms: _194  and  _197
REMARK   77  A    between atoms: _197  and  _198
REMARK   78  A    between atoms: _208  and  _210
REMARK   79  A    between atoms: _210  and  _211
REMARK   80  A    between atoms: _210  and  _213
REMARK   81  A    between atoms: _213  and  _214
REMARK   82  A    between atoms: _216  and  _218
REMARK   83  A    between atoms: _218  and  _219
REMARK   84  A    between atoms: _218  and  _221
REMARK   85  A    between atoms: _221  and  _222
REMARK   86  A    between atoms: _222  and  _223
REMARK   87  A    between atoms: _225  and  _227
REMARK   88  A    between atoms: _227  and  _228
REMARK   89  A    between atoms: _227  and  _230
REMARK   90  A    between atoms: _233  and  _235
REMARK   91  A    between atoms: _235  and  _236
REMARK   92  A    between atoms: _238  and  _240
REMARK   93  A    between atoms: _240  and  _241
REMARK   94  A    between atoms: _240  and  _243
REMARK   95  A    between atoms: _243  and  _244
REMARK   96  A    between atoms: _247  and  _249
REMARK   97  A    between atoms: _249  and  _250
REMARK   98  A    between atoms: _252  and  _254
REMARK   99  A    between atoms: _254  and  _255
REMARK  100  A    between atoms: _254  and  _257
REMARK  101  A    between atoms: _257  and  _258
REMARK  102  A    between atoms: _260  and  _262
REMARK  103  A    between atoms: _262  and  _263
REMARK  104  A    between atoms: _262  and  _265
REMARK  105  A    between atoms: _265  and  _266
REMARK  106  A    between atoms: _272  and  _274
REMARK  107  A    between atoms: _274  and  _275
REMARK  108  A    between atoms: _274  and  _277
REMARK  109  A    between atoms: _277  and  _278
REMARK  110  A    between atoms: _278  and  _279
REMARK  111  A    between atoms: _284  and  _286
REMARK  112  A    between atoms: _286  and  _287
REMARK  113  A    between atoms: _286  and  _289
REMARK  114  A    between atoms: _289  and  _290
REMARK  115  A    between atoms: _293  and  _295
REMARK  116  A    between atoms: _295  and  _296
REMARK  117  A    between atoms: _295  and  _298
REMARK  118  A    between atoms: _298  and  _299
REMARK  119  A    between atoms: _302  and  _304
REMARK  120  A    between atoms: _304  and  _305
REMARK  121  A    between atoms: _304  and  _307
REMARK  122  A    between atoms: _307  and  _308
REMARK  123  A    between atoms: _311  and  _313
REMARK  124  A    between atoms: _313  and  _314
REMARK  125  A    between atoms: _313  and  _316
REMARK  126  A    between atoms: _316  and  _317
REMARK  127  A    between atoms: _322  and  _324
REMARK  128  A    between atoms: _324  and  _325
REMARK  129  A    between atoms: _324  and  _327
REMARK  130  A    between atoms: _327  and  _328
REMARK  131  A    between atoms: _333  and  _335
REMARK  132  A    between atoms: _335  and  _336
REMARK  133  A    between atoms: _335  and  _338
REMARK  134  A    between atoms: _338  and  _339
REMARK  135  A    between atoms: _344  and  _345
REMARK  136  A    between atoms: _347  and  _349
REMARK  137  A    between atoms: _349  and  _350
REMARK  138  A    between atoms: _352  and  _354
REMARK  139  A    between atoms: _354  and  _355
REMARK  140  A    between atoms: _354  and  _357
REMARK  141  A    between atoms: _357  and  _358
REMARK  142  A    between atoms: _363  and  _364
REMARK  143  A    between atoms: _366  and  _368
REMARK  144  A    between atoms: _368  and  _369
REMARK  145  A    between atoms: _368  and  _371
REMARK  146  A    between atoms: _371  and  _372
REMARK  147  A    between atoms: _375  and  _377
REMARK  148  A    between atoms: _377  and  _378
REMARK  149  A    between atoms: _377  and  _380
REMARK  150  A    between atoms: _380  and  _381
REMARK  151  A    between atoms: _384  and  _386
REMARK  152  A    between atoms: _386  and  _387
REMARK  153  A    between atoms: _386  and  _389
REMARK  154  A    between atoms: _389  and  _390
REMARK  155  A    between atoms: _390  and  _391
REMARK  156  A    between atoms: _394  and  _396
REMARK  157  A    between atoms: _396  and  _397
REMARK  158  A    between atoms: _396  and  _399
REMARK  159  A    between atoms: _402  and  _404
REMARK  160  A    between atoms: _404  and  _405
REMARK  161  A    between atoms: _404  and  _407
REMARK  162  A    between atoms: _407  and  _408
REMARK  163  A    between atoms: _408  and  _409
REMARK  164  A    between atoms: _411  and  _413
REMARK  165  A    between atoms: _413  and  _414
REMARK  166  A    between atoms: _413  and  _416
REMARK  167  A    between atoms: _416  and  _417
REMARK  168  A    between atoms: _420  and  _422
REMARK  169  A    between atoms: _422  and  _423
REMARK  170  A    between atoms: _422  and  _425
REMARK  171  A    between atoms: _425  and  _426
REMARK  172  A    between atoms: _431  and  _432
REMARK  173  A    between atoms: _434  and  _436
REMARK  174  A    between atoms: _436  and  _437
REMARK  175  A    between atoms: _436  and  _439
REMARK  176  A    between atoms: _439  and  _440
REMARK  177  A    between atoms: _445  and  _447
REMARK  178  A    between atoms: _447  and  _448
REMARK  179  A    between atoms: _447  and  _450
REMARK  180  A    between atoms: _450  and  _451
REMARK  181  A    between atoms: _454  and  _456
REMARK  182  A    between atoms: _456  and  _457
REMARK  183  A    between atoms: _456  and  _459
REMARK  184  A    between atoms: _459  and  _460
REMARK  185  A    between atoms: _465  and  _466
REMARK  186  A    between atoms: _468  and  _470
REMARK  187  A    between atoms: _470  and  _471
REMARK  188  A    between atoms: _470  and  _473
REMARK  189  A    between atoms: _473  and  _474
REMARK  190  A    between atoms: _477  and  _479
REMARK  191  A    between atoms: _479  and  _480
REMARK  192  A    between atoms: _482  and  _484
REMARK  193  A    between atoms: _484  and  _485
REMARK  194  A    between atoms: _484  and  _487
REMARK  195  A    between atoms: _487  and  _488
REMARK  196  A    between atoms: _488  and  _489
REMARK  197  A    between atoms: _489  and  _490
REMARK  198  A    between atoms: _499  and  _501
REMARK  199  A    between atoms: _501  and  _502
REMARK  200  A    between atoms: _501  and  _504
REMARK  201  A    between atoms: _504  and  _505
REMARK  202  A    between atoms: _508  and  _510
REMARK  203  A    between atoms: _510  and  _511
REMARK  204  A    between atoms: _510  and  _513
REMARK  205  A    between atoms: _515  and  _517
REMARK  206  A    between atoms: _517  and  _518
REMARK  207  A    between atoms: _517  and  _520
REMARK  208  A    between atoms: _520  and  _521
REMARK  209  A    between atoms: _524  and  _526
REMARK  210  A    between atoms: _526  and  _527
REMARK  211  A    between atoms: _526  and  _529
REMARK  212  A    between atoms: _529  and  _530
REMARK  213  A    between atoms: _533  and  _535
REMARK  214  A    between atoms: _535  and  _536
REMARK  215  A    between atoms: _535  and  _538
REMARK  216  A    between atoms: _541  and  _543
REMARK  217  A    between atoms: _543  and  _544
REMARK  218  A    between atoms: _547  and  _549
REMARK  219  A    between atoms: _549  and  _550
REMARK  220  A    between atoms: _552  and  _554
REMARK  221  A    between atoms: _554  and  _555
REMARK  222  A    between atoms: _554  and  _557
REMARK  223  A    between atoms: _557  and  _558
REMARK  224  A    between atoms: _561  and  _563
REMARK  225  A    between atoms: _563  and  _564
REMARK  226  A    between atoms: _563  and  _566
REMARK  227  A    between atoms: _566  and  _567
REMARK  228  A    between atoms: _572  and  _573
REMARK  229  A    between atoms: _575  and  _577
REMARK  230  A    between atoms: _577  and  _578
REMARK  231  A    between atoms: _577  and  _580
REMARK  232  A    between atoms: _580  and  _581
REMARK  233  A    between atoms: _586  and  _588
REMARK  234  A    between atoms: _588  and  _589
REMARK  235  A    between atoms: _588  and  _591
REMARK  236  A    between atoms: _591  and  _592
REMARK  237  A    between atoms: _595  and  _597
REMARK  238  A    between atoms: _597  and  _598
REMARK  239  A    between atoms: _597  and  _600
REMARK  240  A    between atoms: _602  and  _604
REMARK  241  A    between atoms: _604  and  _605
REMARK  242  A    between atoms: _604  and  _607
REMARK  243  A    between atoms: _609  and  _611
REMARK  244  A    between atoms: _611  and  _612
REMARK  245  A    between atoms: _611  and  _614
REMARK  246  A    between atoms: _614  and  _615
REMARK  247  A    between atoms: _620  and  _622
REMARK  248  A    between atoms: _622  and  _623
REMARK  249  A    between atoms: _622  and  _625
REMARK  250  A    between atoms: _625  and  _626
REMARK  251  A    between atoms: _626  and  _627
REMARK  252  A    between atoms: _630  and  _632
REMARK  253  A    between atoms: _632  and  _633
REMARK  254  A    between atoms: _632  and  _635
REMARK  255  A    between atoms: _635  and  _636
REMARK  256  A    between atoms: _639  and  _641
REMARK  257  A    between atoms: _641  and  _642
REMARK  258  A    between atoms: _641  and  _644
REMARK  259  A    between atoms: _647  and  _649
REMARK  260  A    between atoms: _649  and  _650
REMARK  261  A    between atoms: _649  and  _652
REMARK  262  A    between atoms: _652  and  _653
REMARK  263  A    between atoms: _656  and  _658
REMARK  264  A    between atoms: _658  and  _659
REMARK  265  A    between atoms: _658  and  _661
REMARK  266  A    between atoms: _661  and  _662
REMARK  267  A    between atoms: _667  and  _668
REMARK  268  A    between atoms: _670  and  _672
REMARK  269  A    between atoms: _672  and  _673
REMARK  270  A    between atoms: _672  and  _675
REMARK  271  A    between atoms: _675  and  _676
REMARK  272  A    between atoms: _678  and  _680
REMARK  273  A    between atoms: _680  and  _681
REMARK  274  A    between atoms: _680  and  _683
REMARK  275  A    between atoms: _686  and  _688
REMARK  276  A    between atoms: _688  and  _689
REMARK  277  A    between atoms: _691  and  _693
REMARK  278  A    between atoms: _693  and  _694
REMARK  279  A    between atoms: _697  and  _699
REMARK  280  A    between atoms: _699  and  _700
REMARK  281  A    between atoms: _699  and  _702
REMARK  282  A    between atoms: _702  and  _703
REMARK  283  A    between atoms: _706  and  _708
REMARK  284  A    between atoms: _708  and  _709
REMARK  285  A    between atoms: _708  and  _711
REMARK  286  A    between atoms: _711  and  _712
REMARK  287  A    between atoms: _714  and  _716
REMARK  288  A    between atoms: _716  and  _717
REMARK  289  A    between atoms: _720  and  _722
REMARK  290  A    between atoms: _722  and  _723
REMARK  291  A    between atoms: _722  and  _725
REMARK  292  A    between atoms: _725  and  _726
REMARK  293  A    between atoms: _731  and  _733
REMARK  294  A    between atoms: _733  and  _734
REMARK  295  A    between atoms: _733  and  _736
REMARK  296  A    between atoms: _736  and  _737
REMARK                            x       y       z     vdW  Elec       q    Type
REMARK                         _______ _______ _______ _____ _____    ______ ____
ROOT
ATOM      1  CA  LEU A   1      -5.073  23.181 -78.855  0.00  0.00    +0.133 C 
ENDROOT
BRANCH   1   2
ATOM      2  N   LEU A   1      -3.698  23.130 -78.376  0.00  0.00    -0.239 NA
ATOM      3  H   LEU A   1      -3.510  23.136 -77.353  0.00  0.00    +0.142 HD
ENDBRANCH   1   2
BRANCH   1   4
ATOM      4  C   LEU A   1      -5.275  24.463 -79.646  0.00  0.00    +0.224 C 
ATOM      5  O   LEU A   1      -5.812  24.437 -80.757  0.00  0.00    -0.287 OA
ENDBRANCH   1   4
BRANCH   1   6
ATOM      6  CB  LEU A   1      -6.072  23.119 -77.707  0.00  0.00    +0.025 C 
BRANCH   6   7
ATOM      7  CG  LEU A   1      -7.551  23.190 -78.117  0.00  0.00    +0.002 C 
ATOM      8  CD2 LEU A   1      -8.411  23.388 -76.913  0.00  0.00    +0.000 C 
ATOM      9  CD1 LEU A   1      -7.978  21.933 -78.856  0.00  0.00    +0.000 C 
ENDBRANCH   6   7
ENDBRANCH   1   6
TORSDOF 4
REMARK  Name = ../refined-set-2016/2wva/2wva_pocket.pdb
REMARK  296 active torsions:
REMARK  status: ('A' for Active; 'I' for Inactive)
REMARK    1  A    between atoms: _1  and  _3
REMARK    2  A    between atoms: _3  and  _4
REMARK    3  A    between atoms: _3  and  _6
REMARK    4  A    between atoms: _6  and  _7
REMARK    5  A    between atoms: _10  and  _12
REMARK    6  A    between atoms: _12  and  _13
REMARK    7  A    between atoms: _12  and  _15
REMARK    8  A    between atoms: _15  and  _16
REMARK    9  A    between atoms: _22  and  _24
REMARK   10  A    between atoms: _24  and  _25
REMARK   11  A    between atoms: _24  and  _27
REMARK   12  A    between atoms: _27  and  _28
REMARK   13  A    between atoms: _31  and  _33
REMARK   14  A    between atoms: _33  and  _34
REMARK   15  A    between atoms: _33  and  _36
REMARK   16  A    between atoms: _36  and  _37
REMARK   17  A    between atoms: _42  and  _43
REMARK   18  A    between atoms: _45  and  _47
REMARK   19  A    between atoms: _47  and  _48
REMARK   20  A    between atoms: _47  and  _50
REMARK   21  A    between atoms: _50  and  _51
REMARK   22  A    between atoms: _56  and  _58
REMARK   23  A    between atoms: _58  and  _59
REMARK   24  A    between atoms: _58  and  _61
REMARK   25  A    between atoms: _61  and  _62
REMARK   26  A    between atoms: _62  and  _63
REMARK   27  A    between atoms: _66  and  _68
REMARK   28  A    between atoms: _68  and  _69
REMARK   29  A    between atoms: _68  and  _71
REMARK   30  A    between atoms: _71  and  _72
REMARK   31  A    between atoms: _75  and  _77
REMARK   32  A    between atoms: _77  and  _78
REMARK   33  A    between atoms: _80  and  _82
REMARK   34  A    between atoms: _82  and  _83
REMARK   35  A    between atoms: _82  and  _85
REMARK   36  A    between atoms: _85  and  _86
REMARK   37  A    between atoms: _89  and  _91
REMARK   38  A    between atoms: _91  and  _92
REMARK   39  A    between atoms: _91  and  _94
REMARK   40  A    between atoms: _94  and  _95
REMARK   41  A    between atoms: _97  and  _99
REMARK   42  A    between atoms: _99  and  _100
REMARK   43  A    between atoms: _99  and  _102
REMARK   44  A    between atoms: _102  and  _103
REMARK   45  A    between atoms: _113  and  _115
REMARK   46  A    between atoms: _115  and  _116
REMARK   47  A    between atoms: _115  and  _118
REMARK   48  A    between atoms: _118  and  _119
REMARK   49  A    between atoms: _125  and  _127
REMARK   50  A    between atoms: _127  and  _128
REMARK   51  A    between atoms: _127  and  _130
REMARK   52  A    between atoms: _130  and  _131
REMARK   53  A    between atoms: _136  and  _138
REMARK   54  A    between atoms: _138  and  _139
REMARK   55  A    between atoms: _138  and  _141
REMARK   56  A    between atoms: _141  and  _142
REMARK   57  A    between atoms: _142  and  _143
REMARK   58  A    between atoms: _146  and  _148
REMARK   59  A    between atoms: _148  and  _149
REMARK   60  A    between atoms: _148  and  _151
REMARK   61  A    between atoms: _151  and  _152
REMARK   62  A    between atoms: _162  and  _164
REMARK   63  A    between atoms: _164  and  _165
REMARK   64  A    between atoms: _167  and  _169
REMARK   65  A    between atoms: _169  and  _170
REMARK   66  A    between atoms: _169  and  _172
REMARK   67  A    between atoms: _172  and  _173
REMARK   68  A    between atoms: _178  and  _180
REMARK   69  A    between atoms: _180  and  _181
REMARK   70  A    between atoms: _180  and  _183
REMARK   71  A    between atoms: _183  and  _184
REMARK   72  A    between atoms: _187  and  _189
REMARK   73  A    between atoms: _189  and  _190
REMARK   74  A    between atoms: _192  and  _194
REMARK   75  A    between atoms: _194  and  _195
REMARK   76  A    between atoms: _194  and  _197
REMARK   77  A    between atoms: _197  and  _198
REMARK   78  A    between atoms: _208  and  _210
REMARK   79  A    between atoms: _210  and  _211
REMARK   80  A    between atoms: _210  and  _213
REMARK   81  A    between atoms: _213  and  _214
REMARK   82  A    between atoms: _216  and  _218
REMARK   83  A    between atoms: _218  and  _219
REMARK   84  A    between atoms: _218  and  _221
REMARK   85  A    between atoms: _221  and  _222
REMARK   86  A    between atoms: _222  and  _223
REMARK   87  A    between atoms: _225  and  _227
REMARK   88  A    between atoms: _227  and  _228
REMARK   89  A    between atoms: _227  and  _230
REMARK   90  A    between atoms: _233  and  _235
REMARK   91  A    between atoms: _235  and  _236
REMARK   92  A    between atoms: _238  and  _240
REMARK   93  A    between atoms: _240  and  _241
REMARK   94  A    between atoms: _240  and  _243
REMARK   95  A    between atoms: _243  and  _244
REMARK   96  A    between atoms: _247  and  _249
REMARK   97  A    between atoms: _249  and  _250
REMARK   98  A    between atoms: _252  and  _254
REMARK   99  A    between atoms: _254  and  _255
REMARK  100  A    between atoms: _254  and  _257
REMARK  101  A    between atoms: _257  and  _258
REMARK  102  A    between atoms: _260  and  _262
REMARK  103  A    between atoms: _262  and  _263
REMARK  104  A    between atoms: _262  and  _265
REMARK  105  A    between atoms: _265  and  _266
REMARK  106  A    between atoms: _272  and  _274
REMARK  107  A    between atoms: _274  and  _275
REMARK  108  A    between atoms: _274  and  _277
REMARK  109  A    between atoms: _277  and  _278
REMARK  110  A    between atoms: _278  and  _279
REMARK  111  A    between atoms: _284  and  _286
REMARK  112  A    between atoms: _286  and  _287
REMARK  113  A    between atoms: _286  and  _289
REMARK  114  A    between atoms: _289  and  _290
REMARK  115  A    between atoms: _293  and  _295
REMARK  116  A    between atoms: _295  and  _296
REMARK  117  A    between atoms: _295  and  _298
REMARK  118  A    between atoms: _298  and  _299
REMARK  119  A    between atoms: _302  and  _304
REMARK  120  A    between atoms: _304  and  _305
REMARK  121  A    between atoms: _304  and  _307
REMARK  122  A    between atoms: _307  and  _308
REMARK  123  A    between atoms: _311  and  _313
REMARK  124  A    between atoms: _313  and  _314
REMARK  125  A    between atoms: _313  and  _316
REMARK  126  A    between atoms: _316  and  _317
REMARK  127  A    between atoms: _322  and  _324
REMARK  128  A    between atoms: _324  and  _325
REMARK  129  A    between atoms: _324  and  _327
REMARK  130  A    between atoms: _327  and  _328
REMARK  131  A    between atoms: _333  and  _335
REMARK  132  A    between atoms: _335  and  _336
REMARK  133  A    between atoms: _335  and  _338
REMARK  134  A    between atoms: _338  and  _339
REMARK  135  A    between atoms: _344  and  _345
REMARK  136  A    between atoms: _347  and  _349
REMARK  137  A    between atoms: _349  and  _350
REMARK  138  A    between atoms: _352  and  _354
REMARK  139  A    between atoms: _354  and  _355
REMARK  140  A    between atoms: _354  and  _357
REMARK  141  A    between atoms: _357  and  _358
REMARK  142  A    between atoms: _363  and  _364
REMARK  143  A    between atoms: _366  and  _368
REMARK  144  A    between atoms: _368  and  _369
REMARK  145  A    between atoms: _368  and  _371
REMARK  146  A    between atoms: _371  and  _372
REMARK  147  A    between atoms: _375  and  _377
REMARK  148  A    between atoms: _377  and  _378
REMARK  149  A    between atoms: _377  and  _380
REMARK  150  A    between atoms: _380  and  _381
REMARK  151  A    between atoms: _384  and  _386
REMARK  152  A    between atoms: _386  and  _387
REMARK  153  A    between atoms: _386  and  _389
REMARK  154  A    between atoms: _389  and  _390
REMARK  155  A    between atoms: _390  and  _391
REMARK  156  A    between atoms: _394  and  _396
REMARK  157  A    between atoms: _396  and  _397
REMARK  158  A    between atoms: _396  and  _399
REMARK  159  A    between atoms: _402  and  _404
REMARK  160  A    between atoms: _404  and  _405
REMARK  161  A    between atoms: _404  and  _407
REMARK  162  A    between atoms: _407  and  _408
REMARK  163  A    between atoms: _408  and  _409
REMARK  164  A    between atoms: _411  and  _413
REMARK  165  A    between atoms: _413  and  _414
REMARK  166  A    between atoms: _413  and  _416
REMARK  167  A    between atoms: _416  and  _417
REMARK  168  A    between atoms: _420  and  _422
REMARK  169  A    between atoms: _422  and  _423
REMARK  170  A    between atoms: _422  and  _425
REMARK  171  A    between atoms: _425  and  _426
REMARK  172  A    between atoms: _431  and  _432
REMARK  173  A    between atoms: _434  and  _436
REMARK  174  A    between atoms: _436  and  _437
REMARK  175  A    between atoms: _436  and  _439
REMARK  176  A    between atoms: _439  and  _440
REMARK  177  A    between atoms: _445  and  _447
REMARK  178  A    between atoms: _447  and  _448
REMARK  179  A    between atoms: _447  and  _450
REMARK  180  A    between atoms: _450  and  _451
REMARK  181  A    between atoms: _454  and  _456
REMARK  182  A    between atoms: _456  and  _457
REMARK  183  A    between atoms: _456  and  _459
REMARK  184  A    between atoms: _459  and  _460
REMARK  185  A    between atoms: _465  and  _466
REMARK  186  A    between atoms: _468  and  _470
REMARK  187  A    between atoms: _470  and  _471
REMARK  188  A    between atoms: _470  and  _473
REMARK  189  A    between atoms: _473  and  _474
REMARK  190  A    between atoms: _477  and  _479
REMARK  191  A    between atoms: _479  and  _480
REMARK  192  A    between atoms: _482  and  _484
REMARK  193  A    between atoms: _484  and  _485
REMARK  194  A    between atoms: _484  and  _487
REMARK  195  A    between atoms: _487  and  _488
REMARK  196  A    between atoms: _488  and  _489
REMARK  197  A    between atoms: _489  and  _490
REMARK  198  A    between atoms: _499  and  _501
REMARK  199  A    between atoms: _501  and  _502
REMARK  200  A    between atoms: _501  and  _504
REMARK  201  A    between atoms: _504  and  _505
REMARK  202  A    between atoms: _508  and  _510
REMARK  203  A    between atoms: _510  and  _511
REMARK  204  A    between atoms: _510  and  _513
REMARK  205  A    between atoms: _515  and  _517
REMARK  206  A    between atoms: _517  and  _518
REMARK  207  A    between atoms: _517  and  _520
REMARK  208  A    between atoms: _520  and  _521
REMARK  209  A    between atoms: _524  and  _526
REMARK  210  A    between atoms: _526  and  _527
REMARK  211  A    between atoms: _526  and  _529
REMARK  212  A    between atoms: _529  and  _530
REMARK  213  A    between atoms: _533  and  _535
REMARK  214  A    between atoms: _535  and  _536
REMARK  215  A    between atoms: _535  and  _538
REMARK  216  A    between atoms: _541  and  _543
REMARK  217  A    between atoms: _543  and  _544
REMARK  218  A    between atoms: _547  and  _549
REMARK  219  A    between atoms: _549  and  _550
REMARK  220  A    between atoms: _552  and  _554
REMARK  221  A    between atoms: _554  and  _555
REMARK  222  A    between atoms: _554  and  _557
REMARK  223  A    between atoms: _557  and  _558
REMARK  224  A    between atoms: _561  and  _563
REMARK  225  A    between atoms: _563  and  _564
REMARK  226  A    between atoms: _563  and  _566
REMARK  227  A    between atoms: _566  and  _567
REMARK  228  A    between atoms: _572  and  _573
REMARK  229  A    between atoms: _575  and  _577
REMARK  230  A    between atoms: _577  and  _578
REMARK  231  A    between atoms: _577  and  _580
REMARK  232  A    between atoms: _580  and  _581
REMARK  233  A    between atoms: _586  and  _588
REMARK  234  A    between atoms: _588  and  _589
REMARK  235  A    between atoms: _588  and  _591
REMARK  236  A    between atoms: _591  and  _592
REMARK  237  A    between atoms: _595  and  _597
REMARK  238  A    between atoms: _597  and  _598
REMARK  239  A    between atoms: _597  and  _600
REMARK  240  A    between atoms: _602  and  _604
REMARK  241  A    between atoms: _604  and  _605
REMARK  242  A    between atoms: _604  and  _607
REMARK  243  A    between atoms: _609  and  _611
REMARK  244  A    between atoms: _611  and  _612
REMARK  245  A    between atoms: _611  and  _614
REMARK  246  A    between atoms: _614  and  _615
REMARK  247  A    between atoms: _620  and  _622
REMARK  248  A    between atoms: _622  and  _623
REMARK  249  A    between atoms: _622  and  _625
REMARK  250  A    between atoms: _625  and  _626
REMARK  251  A    between atoms: _626  and  _627
REMARK  252  A    between atoms: _630  and  _632
REMARK  253  A    between atoms: _632  and  _633
REMARK  254  A    between atoms: _632  and  _635
REMARK  255  A    between atoms: _635  and  _636
REMARK  256  A    between atoms: _639  and  _641
REMARK  257  A    between atoms: _641  and  _642
REMARK  258  A    between atoms: _641  and  _644
REMARK  259  A    between atoms: _647  and  _649
REMARK  260  A    between atoms: _649  and  _650
REMARK  261  A    between atoms: _649  and  _652
REMARK  262  A    between atoms: _652  and  _653
REMARK  263  A    between atoms: _656  and  _658
REMARK  264  A    between atoms: _658  and  _659
REMARK  265  A    between atoms: _658  and  _661
REMARK  266  A    between atoms: _661  and  _662
REMARK  267  A    between atoms: _667  and  _668
REMARK  268  A    between atoms: _670  and  _672
REMARK  269  A    between atoms: _672  and  _673
REMARK  270  A    between atoms: _672  and  _675
REMARK  271  A    between atoms: _675  and  _676
REMARK  272  A    between atoms: _678  and  _680
REMARK  273  A    between atoms: _680  and  _681
REMARK  274  A    between atoms: _680  and  _683
REMARK  275  A    between atoms: _686  and  _688
REMARK  276  A    between atoms: _688  and  _689
REMARK  277  A    between atoms: _691  and  _693
REMARK  278  A    between atoms: _693  and  _694
REMARK  279  A    between atoms: _697  and  _699
REMARK  280  A    between atoms: _699  and  _700
REMARK  281  A    between atoms: _699  and  _702
REMARK  282  A    between atoms: _702  and  _703
REMARK  283  A    between atoms: _706  and  _708
REMARK  284  A    between atoms: _708  and  _709
REMARK  285  A    between atoms: _708  and  _711
REMARK  286  A    between atoms: _711  and  _712
REMARK  287  A    between atoms: _714  and  _716
REMARK  288  A    between atoms: _716  and  _717
REMARK  289  A    between atoms: _720  and  _722
REMARK  290  A    between atoms: _722  and  _723
REMARK  291  A    between atoms: _722  and  _725
REMARK  292  A    between atoms: _725  and  _726
REMARK  293  A    between atoms: _731  and  _733
REMARK  294  A    between atoms: _733  and  _734
REMARK  295  A    between atoms: _733  and  _736
REMARK  296  A    between atoms: _736  and  _737
REMARK                            x       y       z     vdW  Elec       q    Type
REMARK                         _______ _______ _______ _____ _____    ______ ____
ROOT
ATOM      1  CB  PHE A   1      -8.133  26.354 -83.091  0.00  0.00    +0.051 C 
ENDROOT
BRANCH   1   2
ATOM      2  CG  PHE A   1      -9.071  25.254 -82.690  0.00  0.00    -0.020 A 
ATOM      3  CD2 PHE A   1      -9.330  24.988 -81.351  0.00  0.00    -0.004 A 
ATOM      4  CE2 PHE A   1     -10.204  23.971 -80.978  0.00  0.00    -0.000 A 
ATOM      5  CZ  PHE A   1     -10.836  23.226 -81.943  0.00  0.00    -0.000 A 
ATOM      6  CE1 PHE A   1     -10.597  23.485 -83.286  0.00  0.00    -0.000 A 
ATOM      7  CD1 PHE A   1      -9.721  24.500 -83.649  0.00  0.00    -0.004 A 
ENDBRANCH   1   2
BRANCH   1   8
ATOM      8  CA  PHE A   1      -7.176  25.973 -84.240  0.00  0.00    +0.137 C 
BRANCH   8   9
ATOM      9  N   PHE A   1      -6.073  25.145 -83.767  0.00  0.00    -0.239 NA
ATOM     10  H   PHE A   1      -5.862  25.097 -82.750  0.00  0.00    +0.142 HD
ENDBRANCH   8   9
BRANCH   8  11
ATOM     11  C   PHE A   1      -6.679  27.220 -84.961  0.00  0.00    +0.224 C 
ATOM     12  O   PHE A   1      -7.385  27.769 -85.808  0.00  0.00    -0.287 OA
ENDBRANCH   8  11
ENDBRANCH   1   8
TORSDOF 4
REMARK  Name = ../refined-set-2016/2wva/2wva_pocket.pdb
REMARK  296 active torsions:
REMARK  status: ('A' for Active; 'I' for Inactive)
REMARK    1  A    between atoms: _1  and  _3
REMARK    2  A    between atoms: _3  and  _4
REMARK    3  A    between atoms: _3  and  _6
REMARK    4  A    between atoms: _6  and  _7
REMARK    5  A    between atoms: _10  and  _12
REMARK    6  A    between atoms: _12  and  _13
REMARK    7  A    between atoms: _12  and  _15
REMARK    8  A    between atoms: _15  and  _16
REMARK    9  A    between atoms: _22  and  _24
REMARK   10  A    between atoms: _24  and  _25
REMARK   11  A    between atoms: _24  and  _27
REMARK   12  A    between atoms: _27  and  _28
REMARK   13  A    between atoms: _31  and  _33
REMARK   14  A    between atoms: _33  and  _34
REMARK   15  A    between atoms: _33  and  _36
REMARK   16  A    between atoms: _36  and  _37
REMARK   17  A    between atoms: _42  and  _43
REMARK   18  A    between atoms: _45  and  _47
REMARK   19  A    between atoms: _47  and  _48
REMARK   20  A    between atoms: _47  and  _50
REMARK   21  A    between atoms: _50  and  _51
REMARK   22  A    between atoms: _56  and  _58
REMARK   23  A    between atoms: _58  and  _59
REMARK   24  A    between atoms: _58  and  _61
REMARK   25  A    between atoms: _61  and  _62
REMARK   26  A    between atoms: _62  and  _63
REMARK   27  A    between atoms: _66  and  _68
REMARK   28  A    between atoms: _68  and  _69
REMARK   29  A    between atoms: _68  and  _71
REMARK   30  A    between atoms: _71  and  _72
REMARK   31  A    between atoms: _75  and  _77
REMARK   32  A    between atoms: _77  and  _78
REMARK   33  A    between atoms: _80  and  _82
REMARK   34  A    between atoms: _82  and  _83
REMARK   35  A    between atoms: _82  and  _85
REMARK   36  A    between atoms: _85  and  _86
REMARK   37  A    between atoms: _89  and  _91
REMARK   38  A    between atoms: _91  and  _92
REMARK   39  A    between atoms: _91  and  _94
REMARK   40  A    between atoms: _94  and  _95
REMARK   41  A    between atoms: _97  and  _99
REMARK   42  A    between atoms: _99  and  _100
REMARK   43  A    between atoms: _99  and  _102
REMARK   44  A    between atoms: _102  and  _103
REMARK   45  A    between atoms: _113  and  _115
REMARK   46  A    between atoms: _115  and  _116
REMARK   47  A    between atoms: _115  and  _118
REMARK   48  A    between atoms: _118  and  _119
REMARK   49  A    between atoms: _125  and  _127
REMARK   50  A    between atoms: _127  and  _128
REMARK   51  A    between atoms: _127  and  _130
REMARK   52  A    between atoms: _130  and  _131
REMARK   53  A    between atoms: _136  and  _138
REMARK   54  A    between atoms: _138  and  _139
REMARK   55  A    between atoms: _138  and  _141
REMARK   56  A    between atoms: _141  and  _142
REMARK   57  A    between atoms: _142  and  _143
REMARK   58  A    between atoms: _146  and  _148
REMARK   59  A    between atoms: _148  and  _149
REMARK   60  A    between atoms: _148  and  _151
REMARK   61  A    between atoms: _151  and  _152
REMARK   62  A    between atoms: _162  and  _164
REMARK   63  A    between atoms: _164  and  _165
REMARK   64  A    between atoms: _167  and  _169
REMARK   65  A    between atoms: _169  and  _170
REMARK   66  A    between atoms: _169  and  _172
REMARK   67  A    between atoms: _172  and  _173
REMARK   68  A    between atoms: _178  and  _180
REMARK   69  A    between atoms: _180  and  _181
REMARK   70  A    between atoms: _180  and  _183
REMARK   71  A    between atoms: _183  and  _184
REMARK   72  A    between atoms: _187  and  _189
REMARK   73  A    between atoms: _189  and  _190
REMARK   74  A    between atoms: _192  and  _194
REMARK   75  A    between atoms: _194  and  _195
REMARK   76  A    between atoms: _194  and  _197
REMARK   77  A    between atoms: _197  and  _198
REMARK   78  A    between atoms: _208  and  _210
REMARK   79  A    between atoms: _210  and  _211
REMARK   80  A    between atoms: _210  and  _213
REMARK   81  A    between atoms: _213  and  _214
REMARK   82  A    between atoms: _216  and  _218
REMARK   83  A    between atoms: _218  and  _219
REMARK   84  A    between atoms: _218  and  _221
REMARK   85  A    between atoms: _221  and  _222
REMARK   86  A    between atoms: _222  and  _223
REMARK   87  A    between atoms: _225  and  _227
REMARK   88  A    between atoms: _227  and  _228
REMARK   89  A    between atoms: _227  and  _230
REMARK   90  A    between atoms: _233  and  _235
REMARK   91  A    between atoms: _235  and  _236
REMARK   92  A    between atoms: _238  and  _240
REMARK   93  A    between atoms: _240  and  _241
REMARK   94  A    between atoms: _240  and  _243
REMARK   95  A    between atoms: _243  and  _244
REMARK   96  A    between atoms: _247  and  _249
REMARK   97  A    between atoms: _249  and  _250
REMARK   98  A    between atoms: _252  and  _254
REMARK   99  A    between atoms: _254  and  _255
REMARK  100  A    between atoms: _254  and  _257
REMARK  101  A    between atoms: _257  and  _258
REMARK  102  A    between atoms: _260  and  _262
REMARK  103  A    between atoms: _262  and  _263
REMARK  104  A    between atoms: _262  and  _265
REMARK  105  A    between atoms: _265  and  _266
REMARK  106  A    between atoms: _272  and  _274
REMARK  107  A    between atoms: _274  and  _275
REMARK  108  A    between atoms: _274  and  _277
REMARK  109  A    between atoms: _277  and  _278
REMARK  110  A    between atoms: _278  and  _279
REMARK  111  A    between atoms: _284  and  _286
REMARK  112  A    between atoms: _286  and  _287
REMARK  113  A    between atoms: _286  and  _289
REMARK  114  A    between atoms: _289  and  _290
REMARK  115  A    between atoms: _293  and  _295
REMARK  116  A    between atoms: _295  and  _296
REMARK  117  A    between atoms: _295  and  _298
REMARK  118  A    between atoms: _298  and  _299
REMARK  119  A    between atoms: _302  and  _304
REMARK  120  A    between atoms: _304  and  _305
REMARK  121  A    between atoms: _304  and  _307
REMARK  122  A    between atoms: _307  and  _308
REMARK  123  A    between atoms: _311  and  _313
REMARK  124  A    between atoms: _313  and  _314
REMARK  125  A    between atoms: _313  and  _316
REMARK  126  A    between atoms: _316  and  _317
REMARK  127  A    between atoms: _322  and  _324
REMARK  128  A    between atoms: _324  and  _325
REMARK  129  A    between atoms: _324  and  _327
REMARK  130  A    between atoms: _327  and  _328
REMARK  131  A    between atoms: _333  and  _335
REMARK  132  A    between atoms: _335  and  _336
REMARK  133  A    between atoms: _335  and  _338
REMARK  134  A    between atoms: _338  and  _339
REMARK  135  A    between atoms: _344  and  _345
REMARK  136  A    between atoms: _347  and  _349
REMARK  137  A    between atoms: _349  and  _350
REMARK  138  A    between atoms: _352  and  _354
REMARK  139  A    between atoms: _354  and  _355
REMARK  140  A    between atoms: _354  and  _357
REMARK  141  A    between atoms: _357  and  _358
REMARK  142  A    between atoms: _363  and  _364
REMARK  143  A    between atoms: _366  and  _368
REMARK  144  A    between atoms: _368  and  _369
REMARK  145  A    between atoms: _368  and  _371
REMARK  146  A    between atoms: _371  and  _372
REMARK  147  A    between atoms: _375  and  _377
REMARK  148  A    between atoms: _377  and  _378
REMARK  149  A    between atoms: _377  and  _380
REMARK  150  A    between atoms: _380  and  _381
REMARK  151  A    between atoms: _384  and  _386
REMARK  152  A    between atoms: _386  and  _387
REMARK  153  A    between atoms: _386  and  _389
REMARK  154  A    between atoms: _389  and  _390
REMARK  155  A    between atoms: _390  and  _391
REMARK  156  A    between atoms: _394  and  _396
REMARK  157  A    between atoms: _396  and  _397
REMARK  158  A    between atoms: _396  and  _399
REMARK  159  A    between atoms: _402  and  _404
REMARK  160  A    between atoms: _404  and  _405
REMARK  161  A    between atoms: _404  and  _407
REMARK  162  A    between atoms: _407  and  _408
REMARK  163  A    between atoms: _408  and  _409
REMARK  164  A    between atoms: _411  and  _413
REMARK  165  A    between atoms: _413  and  _414
REMARK  166  A    between atoms: _413  and  _416
REMARK  167  A    between atoms: _416  and  _417
REMARK  168  A    between atoms: _420  and  _422
REMARK  169  A    between atoms: _422  and  _423
REMARK  170  A    between atoms: _422  and  _425
REMARK  171  A    between atoms: _425  and  _426
REMARK  172  A    between atoms: _431  and  _432
REMARK  173  A    between atoms: _434  and  _436
REMARK  174  A    between atoms: _436  and  _437
REMARK  175  A    between atoms: _436  and  _439
REMARK  176  A    between atoms: _439  and  _440
REMARK  177  A    between atoms: _445  and  _447
REMARK  178  A    between atoms: _447  and  _448
REMARK  179  A    between atoms: _447  and  _450
REMARK  180  A    between atoms: _450  and  _451
REMARK  181  A    between atoms: _454  and  _456
REMARK  182  A    between atoms: _456  and  _457
REMARK  183  A    between atoms: _456  and  _459
REMARK  184  A    between atoms: _459  and  _460
REMARK  185  A    between atoms: _465  and  _466
REMARK  186  A    between atoms: _468  and  _470
REMARK  187  A    between atoms: _470  and  _471
REMARK  188  A    between atoms: _470  and  _473
REMARK  189  A    between atoms: _473  and  _474
REMARK  190  A    between atoms: _477  and  _479
REMARK  191  A    between atoms: _479  and  _480
REMARK  192  A    between atoms: _482  and  _484
REMARK  193  A    between atoms: _484  and  _485
REMARK  194  A    between atoms: _484  and  _487
REMARK  195  A    between atoms: _487  and  _488
REMARK  196  A    between atoms: _488  and  _489
REMARK  197  A    between atoms: _489  and  _490
REMARK  198  A    between atoms: _499  and  _501
REMARK  199  A    between atoms: _501  and  _502
REMARK  200  A    between atoms: _501  and  _504
REMARK  201  A    between atoms: _504  and  _505
REMARK  202  A    between atoms: _508  and  _510
REMARK  203  A    between atoms: _510  and  _511
REMARK  204  A    between atoms: _510  and  _513
REMARK  205  A    between atoms: _515  and  _517
REMARK  206  A    between atoms: _517  and  _518
REMARK  207  A    between atoms: _517  and  _520
REMARK  208  A    between atoms: _520  and  _521
REMARK  209  A    between atoms: _524  and  _526
REMARK  210  A    between atoms: _526  and  _527
REMARK  211  A    between atoms: _526  and  _529
REMARK  212  A    between atoms: _529  and  _530
REMARK  213  A    between atoms: _533  and  _535
REMARK  214  A    between atoms: _535  and  _536
REMARK  215  A    between atoms: _535  and  _538
REMARK  216  A    between atoms: _541  and  _543
REMARK  217  A    between atoms: _543  and  _544
REMARK  218  A    between atoms: _547  and  _549
REMARK  219  A    between atoms: _549  and  _550
REMARK  220  A    between atoms: _552  and  _554
REMARK  221  A    between atoms: _554  and  _555
REMARK  222  A    between atoms: _554  and  _557
REMARK  223  A    between atoms: _557  and  _558
REMARK  224  A    between atoms: _561  and  _563
REMARK  225  A    between atoms: _563  and  _564
REMARK  226  A    between atoms: _563  and  _566
REMARK  227  A    between atoms: _566  and  _567
REMARK  228  A    between atoms: _572  and  _573
REMARK  229  A    between atoms: _575  and  _577
REMARK  230  A    between atoms: _577  and  _578
REMARK  231  A    between atoms: _577  and  _580
REMARK  232  A    between atoms: _580  and  _581
REMARK  233  A    between atoms: _586  and  _588
REMARK  234  A    between atoms: _588  and  _589
REMARK  235  A    between atoms: _588  and  _591
REMARK  236  A    between atoms: _591  and  _592
REMARK  237  A    between atoms: _595  and  _597
REMARK  238  A    between atoms: _597  and  _598
REMARK  239  A    between atoms: _597  and  _600
REMARK  240  A    between atoms: _602  and  _604
REMARK  241  A    between atoms: _604  and  _605
REMARK  242  A    between atoms: _604  and  _607
REMARK  243  A    between atoms: _609  and  _611
REMARK  244  A    between atoms: _611  and  _612
REMARK  245  A    between atoms: _611  and  _614
REMARK  246  A    between atoms: _614  and  _615
REMARK  247  A    between atoms: _620  and  _622
REMARK  248  A    between atoms: _622  and  _623
REMARK  249  A    between atoms: _622  and  _625
REMARK  250  A    between atoms: _625  and  _626
REMARK  251  A    between atoms: _626  and  _627
REMARK  252  A    between atoms: _630  and  _632
REMARK  253  A    between atoms: _632  and  _633
REMARK  254  A    between atoms: _632  and  _635
REMARK  255  A    between atoms: _635  and  _636
REMARK  256  A    between atoms: _639  and  _641
REMARK  257  A    between atoms: _641  and  _642
REMARK  258  A    between atoms: _641  and  _644
REMARK  259  A    between atoms: _647  and  _649
REMARK  260  A    between atoms: _649  and  _650
REMARK  261  A    between atoms: _649  and  _652
REMARK  262  A    between atoms: _652  and  _653
REMARK  263  A    between atoms: _656  and  _658
REMARK  264  A    between atoms: _658  and  _659
REMARK  265  A    between atoms: _658  and  _661
REMARK  266  A    between atoms: _661  and  _662
REMARK  267  A    between atoms: _667  and  _668
REMARK  268  A    between atoms: _670  and  _672
REMARK  269  A    between atoms: _672  and  _673
REMARK  270  A    between atoms: _672  and  _675
REMARK  271  A    between atoms: _675  and  _676
REMARK  272  A    between atoms: _678  and  _680
REMARK  273  A    between atoms: _680  and  _681
REMARK  274  A    between atoms: _680  and  _683
REMARK  275  A    between atoms: _686  and  _688
REMARK  276  A    between atoms: _688  and  _689
REMARK  277  A    between atoms: _691  and  _693
REMARK  278  A    between atoms: _693  and  _694
REMARK  279  A    between atoms: _697  and  _699
REMARK  280  A    between atoms: _699  and  _700
REMARK  281  A    between atoms: _699  and  _702
REMARK  282  A    between atoms: _702  and  _703
REMARK  283  A    between atoms: _706  and  _708
REMARK  284  A    between atoms: _708  and  _709
REMARK  285  A    between atoms: _708  and  _711
REMARK  286  A    between atoms: _711  and  _712
REMARK  287  A    between atoms: _714  and  _716
REMARK  288  A    between atoms: _716  and  _717
REMARK  289  A    between atoms: _720  and  _722
REMARK  290  A    between atoms: _722  and  _723
REMARK  291  A    between atoms: _722  and  _725
REMARK  292  A    between atoms: _725  and  _726
REMARK  293  A    between atoms: _731  and  _733
REMARK  294  A    between atoms: _733  and  _734
REMARK  295  A    between atoms: _733  and  _736
REMARK  296  A    between atoms: _736  and  _737
REMARK                            x       y       z     vdW  Elec       q    Type
REMARK                         _______ _______ _______ _____ _____    ______ ____
ROOT
ATOM      1  CA  ASP A   1      -8.959  17.972 -80.936  0.00  0.00    +0.144 C 
ENDROOT
BRANCH   1   2
ATOM      2  N   ASP A   1      -7.611  17.404 -81.007  0.00  0.00    -0.239 NA
ATOM      3  H   ASP A   1      -6.954  17.545 -80.213  0.00  0.00    +0.142 HD
ENDBRANCH   1   2
BRANCH   1   4
ATOM      4  C   ASP A   1      -9.144  18.990 -82.051  0.00  0.00    +0.225 C 
ATOM      5  O   ASP A   1     -10.181  19.006 -82.717  0.00  0.00    -0.287 OA
ENDBRANCH   1   4
BRANCH   1   6
ATOM      6  CB  ASP A   1      -9.207  18.622 -79.572  0.00  0.00    +0.139 C 
BRANCH   6   7
ATOM      7  CG  ASP A   1     -10.687  18.777 -79.247  0.00  0.00    +0.367 C 
ATOM      8  OD2 ASP A   1     -11.048  18.875 -78.044  0.00  0.00    -0.246 OA
ATOM      9  OD1 ASP A   1     -11.504  18.816 -80.189  0.00  0.00    -0.246 OA
ENDBRANCH   6   7
ENDBRANCH   1   6
TORSDOF 4
REMARK  Name = ../refined-set-2016/2wva/2wva_pocket.pdb
REMARK  296 active torsions:
REMARK  status: ('A' for Active; 'I' for Inactive)
REMARK    1  A    between atoms: _1  and  _3
REMARK    2  A    between atoms: _3  and  _4
REMARK    3  A    between atoms: _3  and  _6
REMARK    4  A    between atoms: _6  and  _7
REMARK    5  A    between atoms: _10  and  _12
REMARK    6  A    between atoms: _12  and  _13
REMARK    7  A    between atoms: _12  and  _15
REMARK    8  A    between atoms: _15  and  _16
REMARK    9  A    between atoms: _22  and  _24
REMARK   10  A    between atoms: _24  and  _25
REMARK   11  A    between atoms: _24  and  _27
REMARK   12  A    between atoms: _27  and  _28
REMARK   13  A    between atoms: _31  and  _33
REMARK   14  A    between atoms: _33  and  _34
REMARK   15  A    between atoms: _33  and  _36
REMARK   16  A    between atoms: _36  and  _37
REMARK   17  A    between atoms: _42  and  _43
REMARK   18  A    between atoms: _45  and  _47
REMARK   19  A    between atoms: _47  and  _48
REMARK   20  A    between atoms: _47  and  _50
REMARK   21  A    between atoms: _50  and  _51
REMARK   22  A    between atoms: _56  and  _58
REMARK   23  A    between atoms: _58  and  _59
REMARK   24  A    between atoms: _58  and  _61
REMARK   25  A    between atoms: _61  and  _62
REMARK   26  A    between atoms: _62  and  _63
REMARK   27  A    between atoms: _66  and  _68
REMARK   28  A    between atoms: _68  and  _69
REMARK   29  A    between atoms: _68  and  _71
REMARK   30  A    between atoms: _71  and  _72
REMARK   31  A    between atoms: _75  and  _77
REMARK   32  A    between atoms: _77  and  _78
REMARK   33  A    between atoms: _80  and  _82
REMARK   34  A    between atoms: _82  and  _83
REMARK   35  A    between atoms: _82  and  _85
REMARK   36  A    between atoms: _85  and  _86
REMARK   37  A    between atoms: _89  and  _91
REMARK   38  A    between atoms: _91  and  _92
REMARK   39  A    between atoms: _91  and  _94
REMARK   40  A    between atoms: _94  and  _95
REMARK   41  A    between atoms: _97  and  _99
REMARK   42  A    between atoms: _99  and  _100
REMARK   43  A    between atoms: _99  and  _102
REMARK   44  A    between atoms: _102  and  _103
REMARK   45  A    between atoms: _113  and  _115
REMARK   46  A    between atoms: _115  and  _116
REMARK   47  A    between atoms: _115  and  _118
REMARK   48  A    between atoms: _118  and  _119
REMARK   49  A    between atoms: _125  and  _127
REMARK   50  A    between atoms: _127  and  _128
REMARK   51  A    between atoms: _127  and  _130
REMARK   52  A    between atoms: _130  and  _131
REMARK   53  A    between atoms: _136  and  _138
REMARK   54  A    between atoms: _138  and  _139
REMARK   55  A    between atoms: _138  and  _141
REMARK   56  A    between atoms: _141  and  _142
REMARK   57  A    between atoms: _142  and  _143
REMARK   58  A    between atoms: _146  and  _148
REMARK   59  A    between atoms: _148  and  _149
REMARK   60  A    between atoms: _148  and  _151
REMARK   61  A    between atoms: _151  and  _152
REMARK   62  A    between atoms: _162  and  _164
REMARK   63  A    between atoms: _164  and  _165
REMARK   64  A    between atoms: _167  and  _169
REMARK   65  A    between atoms: _169  and  _170
REMARK   66  A    between atoms: _169  and  _172
REMARK   67  A    between atoms: _172  and  _173
REMARK   68  A    between atoms: _178  and  _180
REMARK   69  A    between atoms: _180  and  _181
REMARK   70  A    between atoms: _180  and  _183
REMARK   71  A    between atoms: _183  and  _184
REMARK   72  A    between atoms: _187  and  _189
REMARK   73  A    between atoms: _189  and  _190
REMARK   74  A    between atoms: _192  and  _194
REMARK   75  A    between atoms: _194  and  _195
REMARK   76  A    between atoms: _194  and  _197
REMARK   77  A    between atoms: _197  and  _198
REMARK   78  A    between atoms: _208  and  _210
REMARK   79  A    between atoms: _210  and  _211
REMARK   80  A    between atoms: _210  and  _213
REMARK   81  A    between atoms: _213  and  _214
REMARK   82  A    between atoms: _216  and  _218
REMARK   83  A    between atoms: _218  and  _219
REMARK   84  A    between atoms: _218  and  _221
REMARK   85  A    between atoms: _221  and  _222
REMARK   86  A    between atoms: _222  and  _223
REMARK   87  A    between atoms: _225  and  _227
REMARK   88  A    between atoms: _227  and  _228
REMARK   89  A    between atoms: _227  and  _230
REMARK   90  A    between atoms: _233  and  _235
REMARK   91  A    between atoms: _235  and  _236
REMARK   92  A    between atoms: _238  and  _240
REMARK   93  A    between atoms: _240  and  _241
REMARK   94  A    between atoms: _240  and  _243
REMARK   95  A    between atoms: _243  and  _244
REMARK   96  A    between atoms: _247  and  _249
REMARK   97  A    between atoms: _249  and  _250
REMARK   98  A    between atoms: _252  and  _254
REMARK   99  A    between atoms: _254  and  _255
REMARK  100  A    between atoms: _254  and  _257
REMARK  101  A    between atoms: _257  and  _258
REMARK  102  A    between atoms: _260  and  _262
REMARK  103  A    between atoms: _262  and  _263
REMARK  104  A    between atoms: _262  and  _265
REMARK  105  A    between atoms: _265  and  _266
REMARK  106  A    between atoms: _272  and  _274
REMARK  107  A    between atoms: _274  and  _275
REMARK  108  A    between atoms: _274  and  _277
REMARK  109  A    between atoms: _277  and  _278
REMARK  110  A    between atoms: _278  and  _279
REMARK  111  A    between atoms: _284  and  _286
REMARK  112  A    between atoms: _286  and  _287
REMARK  113  A    between atoms: _286  and  _289
REMARK  114  A    between atoms: _289  and  _290
REMARK  115  A    between atoms: _293  and  _295
REMARK  116  A    between atoms: _295  and  _296
REMARK  117  A    between atoms: _295  and  _298
REMARK  118  A    between atoms: _298  and  _299
REMARK  119  A    between atoms: _302  and  _304
REMARK  120  A    between atoms: _304  and  _305
REMARK  121  A    between atoms: _304  and  _307
REMARK  122  A    between atoms: _307  and  _308
REMARK  123  A    between atoms: _311  and  _313
REMARK  124  A    between atoms: _313  and  _314
REMARK  125  A    between atoms: _313  and  _316
REMARK  126  A    between atoms: _316  and  _317
REMARK  127  A    between atoms: _322  and  _324
REMARK  128  A    between atoms: _324  and  _325
REMARK  129  A    between atoms: _324  and  _327
REMARK  130  A    between atoms: _327  and  _328
REMARK  131  A    between atoms: _333  and  _335
REMARK  132  A    between atoms: _335  and  _336
REMARK  133  A    between atoms: _335  and  _338
REMARK  134  A    between atoms: _338  and  _339
REMARK  135  A    between atoms: _344  and  _345
REMARK  136  A    between atoms: _347  and  _349
REMARK  137  A    between atoms: _349  and  _350
REMARK  138  A    between atoms: _352  and  _354
REMARK  139  A    between atoms: _354  and  _355
REMARK  140  A    between atoms: _354  and  _357
REMARK  141  A    between atoms: _357  and  _358
REMARK  142  A    between atoms: _363  and  _364
REMARK  143  A    between atoms: _366  and  _368
REMARK  144  A    between atoms: _368  and  _369
REMARK  145  A    between atoms: _368  and  _371
REMARK  146  A    between atoms: _371  and  _372
REMARK  147  A    between atoms: _375  and  _377
REMARK  148  A    between atoms: _377  and  _378
REMARK  149  A    between atoms: _377  and  _380
REMARK  150  A    between atoms: _380  and  _381
REMARK  151  A    between atoms: _384  and  _386
REMARK  152  A    between atoms: _386  and  _387
REMARK  153  A    between atoms: _386  and  _389
REMARK  154  A    between atoms: _389  and  _390
REMARK  155  A    between atoms: _390  and  _391
REMARK  156  A    between atoms: _394  and  _396
REMARK  157  A    between atoms: _396  and  _397
REMARK  158  A    between atoms: _396  and  _399
REMARK  159  A    between atoms: _402  and  _404
REMARK  160  A    between atoms: _404  and  _405
REMARK  161  A    between atoms: _404  and  _407
REMARK  162  A    between atoms: _407  and  _408
REMARK  163  A    between atoms: _408  and  _409
REMARK  164  A    between atoms: _411  and  _413
REMARK  165  A    between atoms: _413  and  _414
REMARK  166  A    between atoms: _413  and  _416
REMARK  167  A    between atoms: _416  and  _417
REMARK  168  A    between atoms: _420  and  _422
REMARK  169  A    between atoms: _422  and  _423
REMARK  170  A    between atoms: _422  and  _425
REMARK  171  A    between atoms: _425  and  _426
REMARK  172  A    between atoms: _431  and  _432
REMARK  173  A    between atoms: _434  and  _436
REMARK  174  A    between atoms: _436  and  _437
REMARK  175  A    between atoms: _436  and  _439
REMARK  176  A    between atoms: _439  and  _440
REMARK  177  A    between atoms: _445  and  _447
REMARK  178  A    between atoms: _447  and  _448
REMARK  179  A    between atoms: _447  and  _450
REMARK  180  A    between atoms: _450  and  _451
REMARK  181  A    between atoms: _454  and  _456
REMARK  182  A    between atoms: _456  and  _457
REMARK  183  A    between atoms: _456  and  _459
REMARK  184  A    between atoms: _459  and  _460
REMARK  185  A    between atoms: _465  and  _466
REMARK  186  A    between atoms: _468  and  _470
REMARK  187  A    between atoms: _470  and  _471
REMARK  188  A    between atoms: _470  and  _473
REMARK  189  A    between atoms: _473  and  _474
REMARK  190  A    between atoms: _477  and  _479
REMARK  191  A    between atoms: _479  and  _480
REMARK  192  A    between atoms: _482  and  _484
REMARK  193  A    between atoms: _484  and  _485
REMARK  194  A    between atoms: _484  and  _487
REMARK  195  A    between atoms: _487  and  _488
REMARK  196  A    between atoms: _488  and  _489
REMARK  197  A    between atoms: _489  and  _490
REMARK  198  A    between atoms: _499  and  _501
REMARK  199  A    between atoms: _501  and  _502
REMARK  200  A    between atoms: _501  and  _504
REMARK  201  A    between atoms: _504  and  _505
REMARK  202  A    between atoms: _508  and  _510
REMARK  203  A    between atoms: _510  and  _511
REMARK  204  A    between atoms: _510  and  _513
REMARK  205  A    between atoms: _515  and  _517
REMARK  206  A    between atoms: _517  and  _518
REMARK  207  A    between atoms: _517  and  _520
REMARK  208  A    between atoms: _520  and  _521
REMARK  209  A    between atoms: _524  and  _526
REMARK  210  A    between atoms: _526  and  _527
REMARK  211  A    between atoms: _526  and  _529
REMARK  212  A    between atoms: _529  and  _530
REMARK  213  A    between atoms: _533  and  _535
REMARK  214  A    between atoms: _535  and  _536
REMARK  215  A    between atoms: _535  and  _538
REMARK  216  A    between atoms: _541  and  _543
REMARK  217  A    between atoms: _543  and  _544
REMARK  218  A    between atoms: _547  and  _549
REMARK  219  A    between atoms: _549  and  _550
REMARK  220  A    between atoms: _552  and  _554
REMARK  221  A    between atoms: _554  and  _555
REMARK  222  A    between atoms: _554  and  _557
REMARK  223  A    between atoms: _557  and  _558
REMARK  224  A    between atoms: _561  and  _563
REMARK  225  A    between atoms: _563  and  _564
REMARK  226  A    between atoms: _563  and  _566
REMARK  227  A    between atoms: _566  and  _567
REMARK  228  A    between atoms: _572  and  _573
REMARK  229  A    between atoms: _575  and  _577
REMARK  230  A    between atoms: _577  and  _578
REMARK  231  A    between atoms: _577  and  _580
REMARK  232  A    between atoms: _580  and  _581
REMARK  233  A    between atoms: _586  and  _588
REMARK  234  A    between atoms: _588  and  _589
REMARK  235  A    between atoms: _588  and  _591
REMARK  236  A    between atoms: _591  and  _592
REMARK  237  A    between atoms: _595  and  _597
REMARK  238  A    between atoms: _597  and  _598
REMARK  239  A    between atoms: _597  and  _600
REMARK  240  A    between atoms: _602  and  _604
REMARK  241  A    between atoms: _604  and  _605
REMARK  242  A    between atoms: _604  and  _607
REMARK  243  A    between atoms: _609  and  _611
REMARK  244  A    between atoms: _611  and  _612
REMARK  245  A    between atoms: _611  and  _614
REMARK  246  A    between atoms: _614  and  _615
REMARK  247  A    between atoms: _620  and  _622
REMARK  248  A    between atoms: _622  and  _623
REMARK  249  A    between atoms: _622  and  _625
REMARK  250  A    between atoms: _625  and  _626
REMARK  251  A    between atoms: _626  and  _627
REMARK  252  A    between atoms: _630  and  _632
REMARK  253  A    between atoms: _632  and  _633
REMARK  254  A    between atoms: _632  and  _635
REMARK  255  A    between atoms: _635  and  _636
REMARK  256  A    between atoms: _639  and  _641
REMARK  257  A    between atoms: _641  and  _642
REMARK  258  A    between atoms: _641  and  _644
REMARK  259  A    between atoms: _647  and  _649
REMARK  260  A    between atoms: _649  and  _650
REMARK  261  A    between atoms: _649  and  _652
REMARK  262  A    between atoms: _652  and  _653
REMARK  263  A    between atoms: _656  and  _658
REMARK  264  A    between atoms: _658  and  _659
REMARK  265  A    between atoms: _658  and  _661
REMARK  266  A    between atoms: _661  and  _662
REMARK  267  A    between atoms: _667  and  _668
REMARK  268  A    between atoms: _670  and  _672
REMARK  269  A    between atoms: _672  and  _673
REMARK  270  A    between atoms: _672  and  _675
REMARK  271  A    between atoms: _675  and  _676
REMARK  272  A    between atoms: _678  and  _680
REMARK  273  A    between atoms: _680  and  _681
REMARK  274  A    between atoms: _680  and  _683
REMARK  275  A    between atoms: _686  and  _688
REMARK  276  A    between atoms: _688  and  _689
REMARK  277  A    between atoms: _691  and  _693
REMARK  278  A    between atoms: _693  and  _694
REMARK  279  A    between atoms: _697  and  _699
REMARK  280  A    between atoms: _699  and  _700
REMARK  281  A    between atoms: _699  and  _702
REMARK  282  A    between atoms: _702  and  _703
REMARK  283  A    between atoms: _706  and  _708
REMARK  284  A    between atoms: _708  and  _709
REMARK  285  A    between atoms: _708  and  _711
REMARK  286  A    between atoms: _711  and  _712
REMARK  287  A    between atoms: _714  and  _716
REMARK  288  A    between atoms: _716  and  _717
REMARK  289  A    between atoms: _720  and  _722
REMARK  290  A    between atoms: _722  and  _723
REMARK  291  A    between atoms: _722  and  _725
REMARK  292  A    between atoms: _725  and  _726
REMARK  293  A    between atoms: _731  and  _733
REMARK  294  A    between atoms: _733  and  _734
REMARK  295  A    between atoms: _733  and  _736
REMARK  296  A    between atoms: _736  and  _737
REMARK                            x       y       z     vdW  Elec       q    Type
REMARK                         _______ _______ _______ _____ _____    ______ ____
ROOT
ATOM      1  CG  TYR A   1     -26.425  21.033 -84.488  0.00  0.00    -0.020 A 
ATOM      2  CD2 TYR A   1     -27.167  20.227 -83.629  0.00  0.00    -0.001 A 
ATOM      3  CE2 TYR A   1     -26.895  20.187 -82.273  0.00  0.00    +0.036 A 
ATOM      4  CZ  TYR A   1     -25.861  20.959 -81.751  0.00  0.00    +0.134 A 
ATOM      5  CE1 TYR A   1     -25.106  21.766 -82.577  0.00  0.00    +0.036 A 
ATOM      6  CD1 TYR A   1     -25.395  21.800 -83.955  0.00  0.00    -0.001 A 
ENDROOT
BRANCH   4   7
ATOM      7  OH  TYR A   1     -25.581  20.922 -80.402  0.00  0.00    -0.506 OA
ATOM      8  HH  TYR A   1     -26.207  20.301 -79.953  0.00  0.00    +0.292 HD
ENDBRANCH   4   7
BRANCH   1   9
ATOM      9  CB  TYR A   1     -26.740  21.069 -85.965  0.00  0.00    +0.051 C 
BRANCH   9  10
ATOM     10  CA  TYR A   1     -28.102  20.471 -86.312  0.00  0.00    +0.137 C 
BRANCH  10  11
ATOM     11  N   TYR A   1     -27.983  19.020 -86.457  0.00  0.00    -0.239 NA
ATOM     12  H   TYR A   1     -27.053  18.606 -86.670  0.00  0.00    +0.142 HD
ENDBRANCH  10  11
BRANCH  10  13
ATOM     13  C   TYR A   1     -28.684  21.153 -87.560  0.00  0.00    +0.224 C 
ATOM     14  O   TYR A   1     -29.549  22.037 -87.444  0.00  0.00    -0.287 OA
ENDBRANCH  10  13
ENDBRANCH   9  10
ENDBRANCH   1   9
TORSDOF 5
REMARK  Name = ../refined-set-2016/2wva/2wva_pocket.pdb
REMARK  296 active torsions:
REMARK  status: ('A' for Active; 'I' for Inactive)
REMARK    1  A    between atoms: _1  and  _3
REMARK    2  A    between atoms: _3  and  _4
REMARK    3  A    between atoms: _3  and  _6
REMARK    4  A    between atoms: _6  and  _7
REMARK    5  A    between atoms: _10  and  _12
REMARK    6  A    between atoms: _12  and  _13
REMARK    7  A    between atoms: _12  and  _15
REMARK    8  A    between atoms: _15  and  _16
REMARK    9  A    between atoms: _22  and  _24
REMARK   10  A    between atoms: _24  and  _25
REMARK   11  A    between atoms: _24  and  _27
REMARK   12  A    between atoms: _27  and  _28
REMARK   13  A    between atoms: _31  and  _33
REMARK   14  A    between atoms: _33  and  _34
REMARK   15  A    between atoms: _33  and  _36
REMARK   16  A    between atoms: _36  and  _37
REMARK   17  A    between atoms: _42  and  _43
REMARK   18  A    between atoms: _45  and  _47
REMARK   19  A    between atoms: _47  and  _48
REMARK   20  A    between atoms: _47  and  _50
REMARK   21  A    between atoms: _50  and  _51
REMARK   22  A    between atoms: _56  and  _58
REMARK   23  A    between atoms: _58  and  _59
REMARK   24  A    between atoms: _58  and  _61
REMARK   25  A    between atoms: _61  and  _62
REMARK   26  A    between atoms: _62  and  _63
REMARK   27  A    between atoms: _66  and  _68
REMARK   28  A    between atoms: _68  and  _69
REMARK   29  A    between atoms: _68  and  _71
REMARK   30  A    between atoms: _71  and  _72
REMARK   31  A    between atoms: _75  and  _77
REMARK   32  A    between atoms: _77  and  _78
REMARK   33  A    between atoms: _80  and  _82
REMARK   34  A    between atoms: _82  and  _83
REMARK   35  A    between atoms: _82  and  _85
REMARK   36  A    between atoms: _85  and  _86
REMARK   37  A    between atoms: _89  and  _91
REMARK   38  A    between atoms: _91  and  _92
REMARK   39  A    between atoms: _91  and  _94
REMARK   40  A    between atoms: _94  and  _95
REMARK   41  A    between atoms: _97  and  _99
REMARK   42  A    between atoms: _99  and  _100
REMARK   43  A    between atoms: _99  and  _102
REMARK   44  A    between atoms: _102  and  _103
REMARK   45  A    between atoms: _113  and  _115
REMARK   46  A    between atoms: _115  and  _116
REMARK   47  A    between atoms: _115  and  _118
REMARK   48  A    between atoms: _118  and  _119
REMARK   49  A    between atoms: _125  and  _127
REMARK   50  A    between atoms: _127  and  _128
REMARK   51  A    between atoms: _127  and  _130
REMARK   52  A    between atoms: _130  and  _131
REMARK   53  A    between atoms: _136  and  _138
REMARK   54  A    between atoms: _138  and  _139
REMARK   55  A    between atoms: _138  and  _141
REMARK   56  A    between atoms: _141  and  _142
REMARK   57  A    between atoms: _142  and  _143
REMARK   58  A    between atoms: _146  and  _148
REMARK   59  A    between atoms: _148  and  _149
REMARK   60  A    between atoms: _148  and  _151
REMARK   61  A    between atoms: _151  and  _152
REMARK   62  A    between atoms: _162  and  _164
REMARK   63  A    between atoms: _164  and  _165
REMARK   64  A    between atoms: _167  and  _169
REMARK   65  A    between atoms: _169  and  _170
REMARK   66  A    between atoms: _169  and  _172
REMARK   67  A    between atoms: _172  and  _173
REMARK   68  A    between atoms: _178  and  _180
REMARK   69  A    between atoms: _180  and  _181
REMARK   70  A    between atoms: _180  and  _183
REMARK   71  A    between atoms: _183  and  _184
REMARK   72  A    between atoms: _187  and  _189
REMARK   73  A    between atoms: _189  and  _190
REMARK   74  A    between atoms: _192  and  _194
REMARK   75  A    between atoms: _194  and  _195
REMARK   76  A    between atoms: _194  and  _197
REMARK   77  A    between atoms: _197  and  _198
REMARK   78  A    between atoms: _208  and  _210
REMARK   79  A    between atoms: _210  and  _211
REMARK   80  A    between atoms: _210  and  _213
REMARK   81  A    between atoms: _213  and  _214
REMARK   82  A    between atoms: _216  and  _218
REMARK   83  A    between atoms: _218  and  _219
REMARK   84  A    between atoms: _218  and  _221
REMARK   85  A    between atoms: _221  and  _222
REMARK   86  A    between atoms: _222  and  _223
REMARK   87  A    between atoms: _225  and  _227
REMARK   88  A    between atoms: _227  and  _228
REMARK   89  A    between atoms: _227  and  _230
REMARK   90  A    between atoms: _233  and  _235
REMARK   91  A    between atoms: _235  and  _236
REMARK   92  A    between atoms: _238  and  _240
REMARK   93  A    between atoms: _240  and  _241
REMARK   94  A    between atoms: _240  and  _243
REMARK   95  A    between atoms: _243  and  _244
REMARK   96  A    between atoms: _247  and  _249
REMARK   97  A    between atoms: _249  and  _250
REMARK   98  A    between atoms: _252  and  _254
REMARK   99  A    between atoms: _254  and  _255
REMARK  100  A    between atoms: _254  and  _257
REMARK  101  A    between atoms: _257  and  _258
REMARK  102  A    between atoms: _260  and  _262
REMARK  103  A    between atoms: _262  and  _263
REMARK  104  A    between atoms: _262  and  _265
REMARK  105  A    between atoms: _265  and  _266
REMARK  106  A    between atoms: _272  and  _274
REMARK  107  A    between atoms: _274  and  _275
REMARK  108  A    between atoms: _274  and  _277
REMARK  109  A    between atoms: _277  and  _278
REMARK  110  A    between atoms: _278  and  _279
REMARK  111  A    between atoms: _284  and  _286
REMARK  112  A    between atoms: _286  and  _287
REMARK  113  A    between atoms: _286  and  _289
REMARK  114  A    between atoms: _289  and  _290
REMARK  115  A    between atoms: _293  and  _295
REMARK  116  A    between atoms: _295  and  _296
REMARK  117  A    between atoms: _295  and  _298
REMARK  118  A    between atoms: _298  and  _299
REMARK  119  A    between atoms: _302  and  _304
REMARK  120  A    between atoms: _304  and  _305
REMARK  121  A    between atoms: _304  and  _307
REMARK  122  A    between atoms: _307  and  _308
REMARK  123  A    between atoms: _311  and  _313
REMARK  124  A    between atoms: _313  and  _314
REMARK  125  A    between atoms: _313  and  _316
REMARK  126  A    between atoms: _316  and  _317
REMARK  127  A    between atoms: _322  and  _324
REMARK  128  A    between atoms: _324  and  _325
REMARK  129  A    between atoms: _324  and  _327
REMARK  130  A    between atoms: _327  and  _328
REMARK  131  A    between atoms: _333  and  _335
REMARK  132  A    between atoms: _335  and  _336
REMARK  133  A    between atoms: _335  and  _338
REMARK  134  A    between atoms: _338  and  _339
REMARK  135  A    between atoms: _344  and  _345
REMARK  136  A    between atoms: _347  and  _349
REMARK  137  A    between atoms: _349  and  _350
REMARK  138  A    between atoms: _352  and  _354
REMARK  139  A    between atoms: _354  and  _355
REMARK  140  A    between atoms: _354  and  _357
REMARK  141  A    between atoms: _357  and  _358
REMARK  142  A    between atoms: _363  and  _364
REMARK  143  A    between atoms: _366  and  _368
REMARK  144  A    between atoms: _368  and  _369
REMARK  145  A    between atoms: _368  and  _371
REMARK  146  A    between atoms: _371  and  _372
REMARK  147  A    between atoms: _375  and  _377
REMARK  148  A    between atoms: _377  and  _378
REMARK  149  A    between atoms: _377  and  _380
REMARK  150  A    between atoms: _380  and  _381
REMARK  151  A    between atoms: _384  and  _386
REMARK  152  A    between atoms: _386  and  _387
REMARK  153  A    between atoms: _386  and  _389
REMARK  154  A    between atoms: _389  and  _390
REMARK  155  A    between atoms: _390  and  _391
REMARK  156  A    between atoms: _394  and  _396
REMARK  157  A    between atoms: _396  and  _397
REMARK  158  A    between atoms: _396  and  _399
REMARK  159  A    between atoms: _402  and  _404
REMARK  160  A    between atoms: _404  and  _405
REMARK  161  A    between atoms: _404  and  _407
REMARK  162  A    between atoms: _407  and  _408
REMARK  163  A    between atoms: _408  and  _409
REMARK  164  A    between atoms: _411  and  _413
REMARK  165  A    between atoms: _413  and  _414
REMARK  166  A    between atoms: _413  and  _416
REMARK  167  A    between atoms: _416  and  _417
REMARK  168  A    between atoms: _420  and  _422
REMARK  169  A    between atoms: _422  and  _423
REMARK  170  A    between atoms: _422  and  _425
REMARK  171  A    between atoms: _425  and  _426
REMARK  172  A    between atoms: _431  and  _432
REMARK  173  A    between atoms: _434  and  _436
REMARK  174  A    between atoms: _436  and  _437
REMARK  175  A    between atoms: _436  and  _439
REMARK  176  A    between atoms: _439  and  _440
REMARK  177  A    between atoms: _445  and  _447
REMARK  178  A    between atoms: _447  and  _448
REMARK  179  A    between atoms: _447  and  _450
REMARK  180  A    between atoms: _450  and  _451
REMARK  181  A    between atoms: _454  and  _456
REMARK  182  A    between atoms: _456  and  _457
REMARK  183  A    between atoms: _456  and  _459
REMARK  184  A    between atoms: _459  and  _460
REMARK  185  A    between atoms: _465  and  _466
REMARK  186  A    between atoms: _468  and  _470
REMARK  187  A    between atoms: _470  and  _471
REMARK  188  A    between atoms: _470  and  _473
REMARK  189  A    between atoms: _473  and  _474
REMARK  190  A    between atoms: _477  and  _479
REMARK  191  A    between atoms: _479  and  _480
REMARK  192  A    between atoms: _482  and  _484
REMARK  193  A    between atoms: _484  and  _485
REMARK  194  A    between atoms: _484  and  _487
REMARK  195  A    between atoms: _487  and  _488
REMARK  196  A    between atoms: _488  and  _489
REMARK  197  A    between atoms: _489  and  _490
REMARK  198  A    between atoms: _499  and  _501
REMARK  199  A    between atoms: _501  and  _502
REMARK  200  A    between atoms: _501  and  _504
REMARK  201  A    between atoms: _504  and  _505
REMARK  202  A    between atoms: _508  and  _510
REMARK  203  A    between atoms: _510  and  _511
REMARK  204  A    between atoms: _510  and  _513
REMARK  205  A    between atoms: _515  and  _517
REMARK  206  A    between atoms: _517  and  _518
REMARK  207  A    between atoms: _517  and  _520
REMARK  208  A    between atoms: _520  and  _521
REMARK  209  A    between atoms: _524  and  _526
REMARK  210  A    between atoms: _526  and  _527
REMARK  211  A    between atoms: _526  and  _529
REMARK  212  A    between atoms: _529  and  _530
REMARK  213  A    between atoms: _533  and  _535
REMARK  214  A    between atoms: _535  and  _536
REMARK  215  A    between atoms: _535  and  _538
REMARK  216  A    between atoms: _541  and  _543
REMARK  217  A    between atoms: _543  and  _544
REMARK  218  A    between atoms: _547  and  _549
REMARK  219  A    between atoms: _549  and  _550
REMARK  220  A    between atoms: _552  and  _554
REMARK  221  A    between atoms: _554  and  _555
REMARK  222  A    between atoms: _554  and  _557
REMARK  223  A    between atoms: _557  and  _558
REMARK  224  A    between atoms: _561  and  _563
REMARK  225  A    between atoms: _563  and  _564
REMARK  226  A    between atoms: _563  and  _566
REMARK  227  A    between atoms: _566  and  _567
REMARK  228  A    between atoms: _572  and  _573
REMARK  229  A    between atoms: _575  and  _577
REMARK  230  A    between atoms: _577  and  _578
REMARK  231  A    between atoms: _577  and  _580
REMARK  232  A    between atoms: _580  and  _581
REMARK  233  A    between atoms: _586  and  _588
REMARK  234  A    between atoms: _588  and  _589
REMARK  235  A    between atoms: _588  and  _591
REMARK  236  A    between atoms: _591  and  _592
REMARK  237  A    between atoms: _595  and  _597
REMARK  238  A    between atoms: _597  and  _598
REMARK  239  A    between atoms: _597  and  _600
REMARK  240  A    between atoms: _602  and  _604
REMARK  241  A    between atoms: _604  and  _605
REMARK  242  A    between atoms: _604  and  _607
REMARK  243  A    between atoms: _609  and  _611
REMARK  244  A    between atoms: _611  and  _612
REMARK  245  A    between atoms: _611  and  _614
REMARK  246  A    between atoms: _614  and  _615
REMARK  247  A    between atoms: _620  and  _622
REMARK  248  A    between atoms: _622  and  _623
REMARK  249  A    between atoms: _622  and  _625
REMARK  250  A    between atoms: _625  and  _626
REMARK  251  A    between atoms: _626  and  _627
REMARK  252  A    between atoms: _630  and  _632
REMARK  253  A    between atoms: _632  and  _633
REMARK  254  A    between atoms: _632  and  _635
REMARK  255  A    between atoms: _635  and  _636
REMARK  256  A    between atoms: _639  and  _641
REMARK  257  A    between atoms: _641  and  _642
REMARK  258  A    between atoms: _641  and  _644
REMARK  259  A    between atoms: _647  and  _649
REMARK  260  A    between atoms: _649  and  _650
REMARK  261  A    between atoms: _649  and  _652
REMARK  262  A    between atoms: _652  and  _653
REMARK  263  A    between atoms: _656  and  _658
REMARK  264  A    between atoms: _658  and  _659
REMARK  265  A    between atoms: _658  and  _661
REMARK  266  A    between atoms: _661  and  _662
REMARK  267  A    between atoms: _667  and  _668
REMARK  268  A    between atoms: _670  and  _672
REMARK  269  A    between atoms: _672  and  _673
REMARK  270  A    between atoms: _672  and  _675
REMARK  271  A    between atoms: _675  and  _676
REMARK  272  A    between atoms: _678  and  _680
REMARK  273  A    between atoms: _680  and  _681
REMARK  274  A    between atoms: _680  and  _683
REMARK  275  A    between atoms: _686  and  _688
REMARK  276  A    between atoms: _688  and  _689
REMARK  277  A    between atoms: _691  and  _693
REMARK  278  A    between atoms: _693  and  _694
REMARK  279  A    between atoms: _697  and  _699
REMARK  280  A    between atoms: _699  and  _700
REMARK  281  A    between atoms: _699  and  _702
REMARK  282  A    between atoms: _702  and  _703
REMARK  283  A    between atoms: _706  and  _708
REMARK  284  A    between atoms: _708  and  _709
REMARK  285  A    between atoms: _708  and  _711
REMARK  286  A    between atoms: _711  and  _712
REMARK  287  A    between atoms: _714  and  _716
REMARK  288  A    between atoms: _716  and  _717
REMARK  289  A    between atoms: _720  and  _722
REMARK  290  A    between atoms: _722  and  _723
REMARK  291  A    between atoms: _722  and  _725
REMARK  292  A    between atoms: _725  and  _726
REMARK  293  A    between atoms: _731  and  _733
REMARK  294  A    between atoms: _733  and  _734
REMARK  295  A    between atoms: _733  and  _736
REMARK  296  A    between atoms: _736  and  _737
REMARK                            x       y       z     vdW  Elec       q    Type
REMARK                         _______ _______ _______ _____ _____    ______ ____
ROOT
ATOM      1  CB  ASN A   1     -29.390  40.145 -78.255  0.00  0.00    +0.110 C 
ENDROOT
BRANCH   1   2
ATOM      2  CG  ASN A   1     -28.721  39.211 -79.236  0.00  0.00    +0.221 C 
ATOM      3  OD1 ASN A   1     -27.509  38.974 -79.165  0.00  0.00    -0.275 OA
ATOM      4  ND2 ASN A   1     -29.513  38.658 -80.153  0.00  0.00    -0.329 N 
ATOM      5 HD21 ASN A   1     -30.527  38.889 -80.172  0.00  0.00    +0.145 HD
ATOM      6 HD22 ASN A   1     -29.118  37.995 -80.850  0.00  0.00    +0.145 HD
ENDBRANCH   1   2
BRANCH   1   7
ATOM      7  CA  ASN A   1     -28.864  41.574 -78.354  0.00  0.00    +0.142 C 
BRANCH   7   8
ATOM      8  N   ASN A   1     -29.506  42.412 -77.349  0.00  0.00    -0.239 NA
ATOM      9  H   ASN A   1     -30.177  41.978 -76.684  0.00  0.00    +0.142 HD
ENDBRANCH   7   8
BRANCH   7  10
ATOM     10  C   ASN A   1     -29.043  42.093 -79.777  0.00  0.00    +0.225 C 
ATOM     11  O   ASN A   1     -28.083  42.157 -80.548  0.00  0.00    -0.287 OA
ENDBRANCH   7  10
ENDBRANCH   1   7
TORSDOF 4
REMARK  Name = ../refined-set-2016/2wva/2wva_pocket.pdb
REMARK  296 active torsions:
REMARK  status: ('A' for Active; 'I' for Inactive)
REMARK    1  A    between atoms: _1  and  _3
REMARK    2  A    between atoms: _3  and  _4
REMARK    3  A    between atoms: _3  and  _6
REMARK    4  A    between atoms: _6  and  _7
REMARK    5  A    between atoms: _10  and  _12
REMARK    6  A    between atoms: _12  and  _13
REMARK    7  A    between atoms: _12  and  _15
REMARK    8  A    between atoms: _15  and  _16
REMARK    9  A    between atoms: _22  and  _24
REMARK   10  A    between atoms: _24  and  _25
REMARK   11  A    between atoms: _24  and  _27
REMARK   12  A    between atoms: _27  and  _28
REMARK   13  A    between atoms: _31  and  _33
REMARK   14  A    between atoms: _33  and  _34
REMARK   15  A    between atoms: _33  and  _36
REMARK   16  A    between atoms: _36  and  _37
REMARK   17  A    between atoms: _42  and  _43
REMARK   18  A    between atoms: _45  and  _47
REMARK   19  A    between atoms: _47  and  _48
REMARK   20  A    between atoms: _47  and  _50
REMARK   21  A    between atoms: _50  and  _51
REMARK   22  A    between atoms: _56  and  _58
REMARK   23  A    between atoms: _58  and  _59
REMARK   24  A    between atoms: _58  and  _61
REMARK   25  A    between atoms: _61  and  _62
REMARK   26  A    between atoms: _62  and  _63
REMARK   27  A    between atoms: _66  and  _68
REMARK   28  A    between atoms: _68  and  _69
REMARK   29  A    between atoms: _68  and  _71
REMARK   30  A    between atoms: _71  and  _72
REMARK   31  A    between atoms: _75  and  _77
REMARK   32  A    between atoms: _77  and  _78
REMARK   33  A    between atoms: _80  and  _82
REMARK   34  A    between atoms: _82  and  _83
REMARK   35  A    between atoms: _82  and  _85
REMARK   36  A    between atoms: _85  and  _86
REMARK   37  A    between atoms: _89  and  _91
REMARK   38  A    between atoms: _91  and  _92
REMARK   39  A    between atoms: _91  and  _94
REMARK   40  A    between atoms: _94  and  _95
REMARK   41  A    between atoms: _97  and  _99
REMARK   42  A    between atoms: _99  and  _100
REMARK   43  A    between atoms: _99  and  _102
REMARK   44  A    between atoms: _102  and  _103
REMARK   45  A    between atoms: _113  and  _115
REMARK   46  A    between atoms: _115  and  _116
REMARK   47  A    between atoms: _115  and  _118
REMARK   48  A    between atoms: _118  and  _119
REMARK   49  A    between atoms: _125  and  _127
REMARK   50  A    between atoms: _127  and  _128
REMARK   51  A    between atoms: _127  and  _130
REMARK   52  A    between atoms: _130  and  _131
REMARK   53  A    between atoms: _136  and  _138
REMARK   54  A    between atoms: _138  and  _139
REMARK   55  A    between atoms: _138  and  _141
REMARK   56  A    between atoms: _141  and  _142
REMARK   57  A    between atoms: _142  and  _143
REMARK   58  A    between atoms: _146  and  _148
REMARK   59  A    between atoms: _148  and  _149
REMARK   60  A    between atoms: _148  and  _151
REMARK   61  A    between atoms: _151  and  _152
REMARK   62  A    between atoms: _162  and  _164
REMARK   63  A    between atoms: _164  and  _165
REMARK   64  A    between atoms: _167  and  _169
REMARK   65  A    between atoms: _169  and  _170
REMARK   66  A    between atoms: _169  and  _172
REMARK   67  A    between atoms: _172  and  _173
REMARK   68  A    between atoms: _178  and  _180
REMARK   69  A    between atoms: _180  and  _181
REMARK   70  A    between atoms: _180  and  _183
REMARK   71  A    between atoms: _183  and  _184
REMARK   72  A    between atoms: _187  and  _189
REMARK   73  A    between atoms: _189  and  _190
REMARK   74  A    between atoms: _192  and  _194
REMARK   75  A    between atoms: _194  and  _195
REMARK   76  A    between atoms: _194  and  _197
REMARK   77  A    between atoms: _197  and  _198
REMARK   78  A    between atoms: _208  and  _210
REMARK   79  A    between atoms: _210  and  _211
REMARK   80  A    between atoms: _210  and  _213
REMARK   81  A    between atoms: _213  and  _214
REMARK   82  A    between atoms: _216  and  _218
REMARK   83  A    between atoms: _218  and  _219
REMARK   84  A    between atoms: _218  and  _221
REMARK   85  A    between atoms: _221  and  _222
REMARK   86  A    between atoms: _222  and  _223
REMARK   87  A    between atoms: _225  and  _227
REMARK   88  A    between atoms: _227  and  _228
REMARK   89  A    between atoms: _227  and  _230
REMARK   90  A    between atoms: _233  and  _235
REMARK   91  A    between atoms: _235  and  _236
REMARK   92  A    between atoms: _238  and  _240
REMARK   93  A    between atoms: _240  and  _241
REMARK   94  A    between atoms: _240  and  _243
REMARK   95  A    between atoms: _243  and  _244
REMARK   96  A    between atoms: _247  and  _249
REMARK   97  A    between atoms: _249  and  _250
REMARK   98  A    between atoms: _252  and  _254
REMARK   99  A    between atoms: _254  and  _255
REMARK  100  A    between atoms: _254  and  _257
REMARK  101  A    between atoms: _257  and  _258
REMARK  102  A    between atoms: _260  and  _262
REMARK  103  A    between atoms: _262  and  _263
REMARK  104  A    between atoms: _262  and  _265
REMARK  105  A    between atoms: _265  and  _266
REMARK  106  A    between atoms: _272  and  _274
REMARK  107  A    between atoms: _274  and  _275
REMARK  108  A    between atoms: _274  and  _277
REMARK  109  A    between atoms: _277  and  _278
REMARK  110  A    between atoms: _278  and  _279
REMARK  111  A    between atoms: _284  and  _286
REMARK  112  A    between atoms: _286  and  _287
REMARK  113  A    between atoms: _286  and  _289
REMARK  114  A    between atoms: _289  and  _290
REMARK  115  A    between atoms: _293  and  _295
REMARK  116  A    between atoms: _295  and  _296
REMARK  117  A    between atoms: _295  and  _298
REMARK  118  A    between atoms: _298  and  _299
REMARK  119  A    between atoms: _302  and  _304
REMARK  120  A    between atoms: _304  and  _305
REMARK  121  A    between atoms: _304  and  _307
REMARK  122  A    between atoms: _307  and  _308
REMARK  123  A    between atoms: _311  and  _313
REMARK  124  A    between atoms: _313  and  _314
REMARK  125  A    between atoms: _313  and  _316
REMARK  126  A    between atoms: _316  and  _317
REMARK  127  A    between atoms: _322  and  _324
REMARK  128  A    between atoms: _324  and  _325
REMARK  129  A    between atoms: _324  and  _327
REMARK  130  A    between atoms: _327  and  _328
REMARK  131  A    between atoms: _333  and  _335
REMARK  132  A    between atoms: _335  and  _336
REMARK  133  A    between atoms: _335  and  _338
REMARK  134  A    between atoms: _338  and  _339
REMARK  135  A    between atoms: _344  and  _345
REMARK  136  A    between atoms: _347  and  _349
REMARK  137  A    between atoms: _349  and  _350
REMARK  138  A    between atoms: _352  and  _354
REMARK  139  A    between atoms: _354  and  _355
REMARK  140  A    between atoms: _354  and  _357
REMARK  141  A    between atoms: _357  and  _358
REMARK  142  A    between atoms: _363  and  _364
REMARK  143  A    between atoms: _366  and  _368
REMARK  144  A    between atoms: _368  and  _369
REMARK  145  A    between atoms: _368  and  _371
REMARK  146  A    between atoms: _371  and  _372
REMARK  147  A    between atoms: _375  and  _377
REMARK  148  A    between atoms: _377  and  _378
REMARK  149  A    between atoms: _377  and  _380
REMARK  150  A    between atoms: _380  and  _381
REMARK  151  A    between atoms: _384  and  _386
REMARK  152  A    between atoms: _386  and  _387
REMARK  153  A    between atoms: _386  and  _389
REMARK  154  A    between atoms: _389  and  _390
REMARK  155  A    between atoms: _390  and  _391
REMARK  156  A    between atoms: _394  and  _396
REMARK  157  A    between atoms: _396  and  _397
REMARK  158  A    between atoms: _396  and  _399
REMARK  159  A    between atoms: _402  and  _404
REMARK  160  A    between atoms: _404  and  _405
REMARK  161  A    between atoms: _404  and  _407
REMARK  162  A    between atoms: _407  and  _408
REMARK  163  A    between atoms: _408  and  _409
REMARK  164  A    between atoms: _411  and  _413
REMARK  165  A    between atoms: _413  and  _414
REMARK  166  A    between atoms: _413  and  _416
REMARK  167  A    between atoms: _416  and  _417
REMARK  168  A    between atoms: _420  and  _422
REMARK  169  A    between atoms: _422  and  _423
REMARK  170  A    between atoms: _422  and  _425
REMARK  171  A    between atoms: _425  and  _426
REMARK  172  A    between atoms: _431  and  _432
REMARK  173  A    between atoms: _434  and  _436
REMARK  174  A    between atoms: _436  and  _437
REMARK  175  A    between atoms: _436  and  _439
REMARK  176  A    between atoms: _439  and  _440
REMARK  177  A    between atoms: _445  and  _447
REMARK  178  A    between atoms: _447  and  _448
REMARK  179  A    between atoms: _447  and  _450
REMARK  180  A    between atoms: _450  and  _451
REMARK  181  A    between atoms: _454  and  _456
REMARK  182  A    between atoms: _456  and  _457
REMARK  183  A    between atoms: _456  and  _459
REMARK  184  A    between atoms: _459  and  _460
REMARK  185  A    between atoms: _465  and  _466
REMARK  186  A    between atoms: _468  and  _470
REMARK  187  A    between atoms: _470  and  _471
REMARK  188  A    between atoms: _470  and  _473
REMARK  189  A    between atoms: _473  and  _474
REMARK  190  A    between atoms: _477  and  _479
REMARK  191  A    between atoms: _479  and  _480
REMARK  192  A    between atoms: _482  and  _484
REMARK  193  A    between atoms: _484  and  _485
REMARK  194  A    between atoms: _484  and  _487
REMARK  195  A    between atoms: _487  and  _488
REMARK  196  A    between atoms: _488  and  _489
REMARK  197  A    between atoms: _489  and  _490
REMARK  198  A    between atoms: _499  and  _501
REMARK  199  A    between atoms: _501  and  _502
REMARK  200  A    between atoms: _501  and  _504
REMARK  201  A    between atoms: _504  and  _505
REMARK  202  A    between atoms: _508  and  _510
REMARK  203  A    between atoms: _510  and  _511
REMARK  204  A    between atoms: _510  and  _513
REMARK  205  A    between atoms: _515  and  _517
REMARK  206  A    between atoms: _517  and  _518
REMARK  207  A    between atoms: _517  and  _520
REMARK  208  A    between atoms: _520  and  _521
REMARK  209  A    between atoms: _524  and  _526
REMARK  210  A    between atoms: _526  and  _527
REMARK  211  A    between atoms: _526  and  _529
REMARK  212  A    between atoms: _529  and  _530
REMARK  213  A    between atoms: _533  and  _535
REMARK  214  A    between atoms: _535  and  _536
REMARK  215  A    between atoms: _535  and  _538
REMARK  216  A    between atoms: _541  and  _543
REMARK  217  A    between atoms: _543  and  _544
REMARK  218  A    between atoms: _547  and  _549
REMARK  219  A    between atoms: _549  and  _550
REMARK  220  A    between atoms: _552  and  _554
REMARK  221  A    between atoms: _554  and  _555
REMARK  222  A    between atoms: _554  and  _557
REMARK  223  A    between atoms: _557  and  _558
REMARK  224  A    between atoms: _561  and  _563
REMARK  225  A    between atoms: _563  and  _564
REMARK  226  A    between atoms: _563  and  _566
REMARK  227  A    between atoms: _566  and  _567
REMARK  228  A    between atoms: _572  and  _573
REMARK  229  A    between atoms: _575  and  _577
REMARK  230  A    between atoms: _577  and  _578
REMARK  231  A    between atoms: _577  and  _580
REMARK  232  A    between atoms: _580  and  _581
REMARK  233  A    between atoms: _586  and  _588
REMARK  234  A    between atoms: _588  and  _589
REMARK  235  A    between atoms: _588  and  _591
REMARK  236  A    between atoms: _591  and  _592
REMARK  237  A    between atoms: _595  and  _597
REMARK  238  A    between atoms: _597  and  _598
REMARK  239  A    between atoms: _597  and  _600
REMARK  240  A    between atoms: _602  and  _604
REMARK  241  A    between atoms: _604  and  _605
REMARK  242  A    between atoms: _604  and  _607
REMARK  243  A    between atoms: _609  and  _611
REMARK  244  A    between atoms: _611  and  _612
REMARK  245  A    between atoms: _611  and  _614
REMARK  246  A    between atoms: _614  and  _615
REMARK  247  A    between atoms: _620  and  _622
REMARK  248  A    between atoms: _622  and  _623
REMARK  249  A    between atoms: _622  and  _625
REMARK  250  A    between atoms: _625  and  _626
REMARK  251  A    between atoms: _626  and  _627
REMARK  252  A    between atoms: _630  and  _632
REMARK  253  A    between atoms: _632  and  _633
REMARK  254  A    between atoms: _632  and  _635
REMARK  255  A    between atoms: _635  and  _636
REMARK  256  A    between atoms: _639  and  _641
REMARK  257  A    between atoms: _641  and  _642
REMARK  258  A    between atoms: _641  and  _644
REMARK  259  A    between atoms: _647  and  _649
REMARK  260  A    between atoms: _649  and  _650
REMARK  261  A    between atoms: _649  and  _652
REMARK  262  A    between atoms: _652  and  _653
REMARK  263  A    between atoms: _656  and  _658
REMARK  264  A    between atoms: _658  and  _659
REMARK  265  A    between atoms: _658  and  _661
REMARK  266  A    between atoms: _661  and  _662
REMARK  267  A    between atoms: _667  and  _668
REMARK  268  A    between atoms: _670  and  _672
REMARK  269  A    between atoms: _672  and  _673
REMARK  270  A    between atoms: _672  and  _675
REMARK  271  A    between atoms: _675  and  _676
REMARK  272  A    between atoms: _678  and  _680
REMARK  273  A    between atoms: _680  and  _681
REMARK  274  A    between atoms: _680  and  _683
REMARK  275  A    between atoms: _686  and  _688
REMARK  276  A    between atoms: _688  and  _689
REMARK  277  A    between atoms: _691  and  _693
REMARK  278  A    between atoms: _693  and  _694
REMARK  279  A    between atoms: _697  and  _699
REMARK  280  A    between atoms: _699  and  _700
REMARK  281  A    between atoms: _699  and  _702
REMARK  282  A    between atoms: _702  and  _703
REMARK  283  A    between atoms: _706  and  _708
REMARK  284  A    between atoms: _708  and  _709
REMARK  285  A    between atoms: _708  and  _711
REMARK  286  A    between atoms: _711  and  _712
REMARK  287  A    between atoms: _714  and  _716
REMARK  288  A    between atoms: _716  and  _717
REMARK  289  A    between atoms: _720  and  _722
REMARK  290  A    between atoms: _722  and  _723
REMARK  291  A    between atoms: _722  and  _725
REMARK  292  A    between atoms: _725  and  _726
REMARK  293  A    between atoms: _731  and  _733
REMARK  294  A    between atoms: _733  and  _734
REMARK  295  A    between atoms: _733  and  _736
REMARK  296  A    between atoms: _736  and  _737
REMARK                            x       y       z     vdW  Elec       q    Type
REMARK                         _______ _______ _______ _____ _____    ______ ____
ROOT
ATOM      1  C   SER A   5     -23.692  33.537 -83.616  0.00  0.00    +0.243 C 
ATOM      2  N   TRP A   6     -23.935  32.230 -83.587  0.00  0.00    -0.297 N 
ATOM      3  H   TRP A   6     -23.843  31.716 -82.687  0.00  0.00    +0.150 HD
ATOM      4  O   SER A   5     -23.642  34.180 -84.661  0.00  0.00    -0.273 OA
ENDROOT
BRANCH   2   5
ATOM      5  CA  TRP A   6     -24.327  31.501 -84.785  0.00  0.00    +0.153 C 
BRANCH   5   6
ATOM      6  C   TRP A   6     -25.514  32.195 -85.420  0.00  0.00    +0.241 C 
ATOM      7  N   PHE A   7     -26.537  32.419 -84.602  0.00  0.00    -0.297 N 
ATOM      8  H   PHE A   7     -26.423  32.206 -83.591  0.00  0.00    +0.150 HD
ATOM      9  O   TRP A   6     -25.505  32.517 -86.611  0.00  0.00    -0.273 OA
BRANCH   7  10
ATOM     10  CA  PHE A   7     -27.805  32.948 -85.061  0.00  0.00    +0.153 C 
BRANCH  10  11
ATOM     11  C   PHE A   7     -27.785  34.447 -85.352  0.00  0.00    +0.241 C 
ATOM     12  N   ASN A   8     -27.074  35.222 -84.541  0.00  0.00    -0.298 N 
ATOM     13  H   ASN A   8     -26.649  34.824 -83.679  0.00  0.00    +0.150 HD
ATOM     14  O   PHE A   7     -28.412  34.900 -86.312  0.00  0.00    -0.273 OA
BRANCH  12  15
ATOM     15  CA  ASN A   8     -26.891  36.635 -84.863  0.00  0.00    +0.146 C 
BRANCH  15  16
ATOM     16  C   ASN A   8     -26.209  36.825 -86.226  0.00  0.00    +0.227 C 
ATOM     17  O   ASN A   8     -26.674  37.608 -87.070  0.00  0.00    -0.286 OA
ENDBRANCH  15  16
BRANCH  15  18
ATOM     18  CB  ASN A   8     -26.101  37.340 -83.772  0.00  0.00    +0.112 C 
BRANCH  18  19
ATOM     19  CG  ASN A   8     -26.940  37.636 -82.564  0.00  0.00    +0.222 C 
ATOM     20  ND2 ASN A   8     -26.368  37.435 -81.379  0.00  0.00    -0.329 N 
ATOM     21 HD21 ASN A   8     -26.902  37.618 -80.506  0.00  0.00    +0.145 HD
ATOM     22 HD22 ASN A   8     -25.387  37.094 -81.326  0.00  0.00    +0.145 HD
ATOM     23  OD1 ASN A   8     -28.098  38.038 -82.689  0.00  0.00    -0.275 OA
ENDBRANCH  18  19
ENDBRANCH  15  18
ENDBRANCH  12  15
ENDBRANCH  10  11
BRANCH  10  24
ATOM     24  CB  PHE A   7     -28.888  32.586 -84.055  0.00  0.00    +0.055 C 
BRANCH  24  25
ATOM     25  CG  PHE A   7     -29.070  31.107 -83.896  0.00  0.00    -0.020 A 
ATOM     26  CD2 PHE A   7     -28.363  30.414 -82.935  0.00  0.00    -0.004 A 
ATOM     27  CE2 PHE A   7     -28.516  29.054 -82.790  0.00  0.00    -0.000 A 
ATOM     28  CZ  PHE A   7     -29.379  28.360 -83.617  0.00  0.00    -0.000 A 
ATOM     29  CE1 PHE A   7     -30.090  29.032 -84.600  0.00  0.00    -0.000 A 
ATOM     30  CD1 PHE A   7     -29.929  30.402 -84.740  0.00  0.00    -0.004 A 
ENDBRANCH  24  25
ENDBRANCH  10  24
ENDBRANCH   7  10
ENDBRANCH   5   6
BRANCH   5  31
ATOM     31  CB  TRP A   6     -24.756  30.080 -84.427  0.00  0.00    +0.057 C 
BRANCH  31  32
ATOM     32  CG  TRP A   6     -23.652  29.074 -84.456  0.00  0.00    -0.002 A 
ATOM     33  CD2 TRP A   6     -23.788  27.664 -84.255  0.00  0.00    +0.013 A 
ATOM     34  CE3 TRP A   6     -24.874  26.825 -84.005  0.00  0.00    +0.001 A 
ATOM     35  CZ3 TRP A   6     -24.647  25.472 -83.865  0.00  0.00    +0.000 A 
ATOM     36  CH2 TRP A   6     -23.358  24.939 -83.968  0.00  0.00    +0.001 A 
ATOM     37  CZ2 TRP A   6     -22.269  25.737 -84.211  0.00  0.00    +0.017 A 
ATOM     38  CE2 TRP A   6     -22.496  27.100 -84.351  0.00  0.00    +0.056 A 
ATOM     39  NE1 TRP A   6     -21.615  28.123 -84.595  0.00  0.00    -0.352 N 
ATOM     40  HE1 TRP A   6     -20.588  28.020 -84.720  0.00  0.00    +0.166 HD
ATOM     41  CD1 TRP A   6     -22.315  29.310 -84.647  0.00  0.00    +0.068 A 
ENDBRANCH  31  32
ENDBRANCH   5  31
ENDBRANCH   2   5
BRANCH   1  42
ATOM     42  CA  SER A   5     -23.452  34.235 -82.273  0.00  0.00    +0.178 C 
BRANCH  42  44
ATOM     43  C   ASP A   4     -25.484  33.455 -81.205  0.00  0.00    +0.241 C 
ATOM     44  N   SER A   5     -24.156  33.571 -81.182  0.00  0.00    -0.295 N 
ATOM     45  H   SER A   5     -23.618  33.185 -80.380  0.00  0.00    +0.150 HD
ATOM     46  O   ASP A   4     -26.191  33.938 -82.106  0.00  0.00    -0.273 OA
BRANCH  43  47
ATOM     47  CA  ASP A   4     -26.111  32.680 -80.056  0.00  0.00    +0.160 C 
BRANCH  47  49
ATOM     48  C   GLY A   3     -24.563  30.830 -80.065  0.00  0.00    +0.243 C 
ATOM     49  N   ASP A   4     -25.128  31.831 -79.394  0.00  0.00    -0.296 N 
ATOM     50  H   ASP A   4     -24.869  32.007 -78.402  0.00  0.00    +0.150 HD
ATOM     51  O   GLY A   3     -24.804  30.592 -81.256  0.00  0.00    -0.273 OA
BRANCH  48  52
ATOM     52  CA  GLY A   3     -23.584  29.968 -79.314  0.00  0.00    +0.176 C 
BRANCH  52  55
ATOM     53  C   THR A   2     -21.535  29.102 -80.250  0.00  0.00    +0.243 C 
ATOM     54  O   THR A   2     -20.874  29.525 -79.292  0.00  0.00    -0.273 OA
ATOM     55  N   GLY A   3     -22.859  29.188 -80.290  0.00  0.00    -0.295 N 
ATOM     56  H   GLY A   3     -23.382  28.686 -81.035  0.00  0.00    +0.150 HD
BRANCH  53  57
ATOM     57  CA  THR A   2     -20.859  28.414 -81.451  0.00  0.00    +0.176 C 
BRANCH  57  59
ATOM     58  C   GLU A   1     -19.888  30.506 -82.208  0.00  0.00    +0.238 C 
ATOM     59  N   THR A   2     -19.739  29.221 -81.892  0.00  0.00    -0.295 N 
ATOM     60  H   THR A   2     -18.797  28.786 -81.963  0.00  0.00    +0.150 HD
ATOM     61  O   GLU A   1     -21.002  31.054 -82.277  0.00  0.00    -0.274 OA
BRANCH  58  62
ATOM     62  CA  GLU A   1     -18.586  31.283 -82.477  0.00  0.00    +0.145 C 
BRANCH  62  63
ATOM     63  N   GLU A   1     -18.722  32.380 -83.432  0.00  0.00    -0.238 NA
ATOM     64  H   GLU A   1     -18.728  33.356 -83.074  0.00  0.00    +0.142 HD
ENDBRANCH  62  63
BRANCH  62  65
ATOM     65  CB  GLU A   1     -18.046  31.825 -81.147  0.00  0.00    +0.038 C 
BRANCH  65  66
ATOM     66  CG  GLU A   1     -17.792  30.758 -80.086  0.00  0.00    +0.116 C 
BRANCH  66  67
ATOM     67  CD  GLU A   1     -16.763  29.746 -80.557  0.00  0.00    +0.365 C 
ATOM     68  OE2 GLU A   1     -15.560  29.954 -80.294  0.00  0.00    -0.246 OA
ATOM     69  OE1 GLU A   1     -17.166  28.750 -81.211  0.00  0.00    -0.246 OA
ENDBRANCH  66  67
ENDBRANCH  65  66
ENDBRANCH  62  65
ENDBRANCH  58  62
ENDBRANCH  57  59
BRANCH  57  70
ATOM     70  CB  THR A   2     -20.381  27.024 -81.020  0.00  0.00    +0.137 C 
ATOM     71  CG2 THR A   2     -21.537  26.210 -80.445  0.00  0.00    +0.034 C 
BRANCH  70  72
ATOM     72  OG1 THR A   2     -19.813  26.342 -82.146  0.00  0.00    -0.382 OA
ATOM     73  HG1 THR A   2     -19.045  26.862 -82.493  0.00  0.00    +0.210 HD
ENDBRANCH  70  72
ENDBRANCH  57  70
ENDBRANCH  53  57
ENDBRANCH  52  55
ENDBRANCH  48  52
ENDBRANCH  47  49
BRANCH  47  74
ATOM     74  CB  ASP A   4     -26.793  33.637 -79.086  0.00  0.00    +0.143 C 
BRANCH  74  75
ATOM     75  CG  ASP A   4     -28.173  34.069 -79.585  0.00  0.00    +0.367 C 
ATOM     76  OD2 ASP A   4     -28.640  35.177 -79.225  0.00  0.00    -0.246 OA
ATOM     77  OD1 ASP A   4     -28.793  33.292 -80.343  0.00  0.00    -0.246 OA
ENDBRANCH  74  75
ENDBRANCH  47  74
ENDBRANCH  43  47
ENDBRANCH  42  44
BRANCH  42  78
ATOM     78  CB  SER A   5     -21.962  34.333 -81.972  0.00  0.00    +0.166 C 
BRANCH  78  79
ATOM     79  OG  SER A   5     -21.740  35.304 -80.975  0.00  0.00    -0.380 OA
ATOM     80  H   SER A   5     -22.225  35.046 -80.151  0.00  0.00    +0.211 HD
ENDBRANCH  78  79
ENDBRANCH  42  78
ENDBRANCH   1  42
TORSDOF 31
REMARK  Name = ../refined-set-2016/2wva/2wva_pocket.pdb
REMARK  296 active torsions:
REMARK  status: ('A' for Active; 'I' for Inactive)
REMARK    1  A    between atoms: _1  and  _3
REMARK    2  A    between atoms: _3  and  _4
REMARK    3  A    between atoms: _3  and  _6
REMARK    4  A    between atoms: _6  and  _7
REMARK    5  A    between atoms: _10  and  _12
REMARK    6  A    between atoms: _12  and  _13
REMARK    7  A    between atoms: _12  and  _15
REMARK    8  A    between atoms: _15  and  _16
REMARK    9  A    between atoms: _22  and  _24
REMARK   10  A    between atoms: _24  and  _25
REMARK   11  A    between atoms: _24  and  _27
REMARK   12  A    between atoms: _27  and  _28
REMARK   13  A    between atoms: _31  and  _33
REMARK   14  A    between atoms: _33  and  _34
REMARK   15  A    between atoms: _33  and  _36
REMARK   16  A    between atoms: _36  and  _37
REMARK   17  A    between atoms: _42  and  _43
REMARK   18  A    between atoms: _45  and  _47
REMARK   19  A    between atoms: _47  and  _48
REMARK   20  A    between atoms: _47  and  _50
REMARK   21  A    between atoms: _50  and  _51
REMARK   22  A    between atoms: _56  and  _58
REMARK   23  A    between atoms: _58  and  _59
REMARK   24  A    between atoms: _58  and  _61
REMARK   25  A    between atoms: _61  and  _62
REMARK   26  A    between atoms: _62  and  _63
REMARK   27  A    between atoms: _66  and  _68
REMARK   28  A    between atoms: _68  and  _69
REMARK   29  A    between atoms: _68  and  _71
REMARK   30  A    between atoms: _71  and  _72
REMARK   31  A    between atoms: _75  and  _77
REMARK   32  A    between atoms: _77  and  _78
REMARK   33  A    between atoms: _80  and  _82
REMARK   34  A    between atoms: _82  and  _83
REMARK   35  A    between atoms: _82  and  _85
REMARK   36  A    between atoms: _85  and  _86
REMARK   37  A    between atoms: _89  and  _91
REMARK   38  A    between atoms: _91  and  _92
REMARK   39  A    between atoms: _91  and  _94
REMARK   40  A    between atoms: _94  and  _95
REMARK   41  A    between atoms: _97  and  _99
REMARK   42  A    between atoms: _99  and  _100
REMARK   43  A    between atoms: _99  and  _102
REMARK   44  A    between atoms: _102  and  _103
REMARK   45  A    between atoms: _113  and  _115
REMARK   46  A    between atoms: _115  and  _116
REMARK   47  A    between atoms: _115  and  _118
REMARK   48  A    between atoms: _118  and  _119
REMARK   49  A    between atoms: _125  and  _127
REMARK   50  A    between atoms: _127  and  _128
REMARK   51  A    between atoms: _127  and  _130
REMARK   52  A    between atoms: _130  and  _131
REMARK   53  A    between atoms: _136  and  _138
REMARK   54  A    between atoms: _138  and  _139
REMARK   55  A    between atoms: _138  and  _141
REMARK   56  A    between atoms: _141  and  _142
REMARK   57  A    between atoms: _142  and  _143
REMARK   58  A    between atoms: _146  and  _148
REMARK   59  A    between atoms: _148  and  _149
REMARK   60  A    between atoms: _148  and  _151
REMARK   61  A    between atoms: _151  and  _152
REMARK   62  A    between atoms: _162  and  _164
REMARK   63  A    between atoms: _164  and  _165
REMARK   64  A    between atoms: _167  and  _169
REMARK   65  A    between atoms: _169  and  _170
REMARK   66  A    between atoms: _169  and  _172
REMARK   67  A    between atoms: _172  and  _173
REMARK   68  A    between atoms: _178  and  _180
REMARK   69  A    between atoms: _180  and  _181
REMARK   70  A    between atoms: _180  and  _183
REMARK   71  A    between atoms: _183  and  _184
REMARK   72  A    between atoms: _187  and  _189
REMARK   73  A    between atoms: _189  and  _190
REMARK   74  A    between atoms: _192  and  _194
REMARK   75  A    between atoms: _194  and  _195
REMARK   76  A    between atoms: _194  and  _197
REMARK   77  A    between atoms: _197  and  _198
REMARK   78  A    between atoms: _208  and  _210
REMARK   79  A    between atoms: _210  and  _211
REMARK   80  A    between atoms: _210  and  _213
REMARK   81  A    between atoms: _213  and  _214
REMARK   82  A    between atoms: _216  and  _218
REMARK   83  A    between atoms: _218  and  _219
REMARK   84  A    between atoms: _218  and  _221
REMARK   85  A    between atoms: _221  and  _222
REMARK   86  A    between atoms: _222  and  _223
REMARK   87  A    between atoms: _225  and  _227
REMARK   88  A    between atoms: _227  and  _228
REMARK   89  A    between atoms: _227  and  _230
REMARK   90  A    between atoms: _233  and  _235
REMARK   91  A    between atoms: _235  and  _236
REMARK   92  A    between atoms: _238  and  _240
REMARK   93  A    between atoms: _240  and  _241
REMARK   94  A    between atoms: _240  and  _243
REMARK   95  A    between atoms: _243  and  _244
REMARK   96  A    between atoms: _247  and  _249
REMARK   97  A    between atoms: _249  and  _250
REMARK   98  A    between atoms: _252  and  _254
REMARK   99  A    between atoms: _254  and  _255
REMARK  100  A    between atoms: _254  and  _257
REMARK  101  A    between atoms: _257  and  _258
REMARK  102  A    between atoms: _260  and  _262
REMARK  103  A    between atoms: _262  and  _263
REMARK  104  A    between atoms: _262  and  _265
REMARK  105  A    between atoms: _265  and  _266
REMARK  106  A    between atoms: _272  and  _274
REMARK  107  A    between atoms: _274  and  _275
REMARK  108  A    between atoms: _274  and  _277
REMARK  109  A    between atoms: _277  and  _278
REMARK  110  A    between atoms: _278  and  _279
REMARK  111  A    between atoms: _284  and  _286
REMARK  112  A    between atoms: _286  and  _287
REMARK  113  A    between atoms: _286  and  _289
REMARK  114  A    between atoms: _289  and  _290
REMARK  115  A    between atoms: _293  and  _295
REMARK  116  A    between atoms: _295  and  _296
REMARK  117  A    between atoms: _295  and  _298
REMARK  118  A    between atoms: _298  and  _299
REMARK  119  A    between atoms: _302  and  _304
REMARK  120  A    between atoms: _304  and  _305
REMARK  121  A    between atoms: _304  and  _307
REMARK  122  A    between atoms: _307  and  _308
REMARK  123  A    between atoms: _311  and  _313
REMARK  124  A    between atoms: _313  and  _314
REMARK  125  A    between atoms: _313  and  _316
REMARK  126  A    between atoms: _316  and  _317
REMARK  127  A    between atoms: _322  and  _324
REMARK  128  A    between atoms: _324  and  _325
REMARK  129  A    between atoms: _324  and  _327
REMARK  130  A    between atoms: _327  and  _328
REMARK  131  A    between atoms: _333  and  _335
REMARK  132  A    between atoms: _335  and  _336
REMARK  133  A    between atoms: _335  and  _338
REMARK  134  A    between atoms: _338  and  _339
REMARK  135  A    between atoms: _344  and  _345
REMARK  136  A    between atoms: _347  and  _349
REMARK  137  A    between atoms: _349  and  _350
REMARK  138  A    between atoms: _352  and  _354
REMARK  139  A    between atoms: _354  and  _355
REMARK  140  A    between atoms: _354  and  _357
REMARK  141  A    between atoms: _357  and  _358
REMARK  142  A    between atoms: _363  and  _364
REMARK  143  A    between atoms: _366  and  _368
REMARK  144  A    between atoms: _368  and  _369
REMARK  145  A    between atoms: _368  and  _371
REMARK  146  A    between atoms: _371  and  _372
REMARK  147  A    between atoms: _375  and  _377
REMARK  148  A    between atoms: _377  and  _378
REMARK  149  A    between atoms: _377  and  _380
REMARK  150  A    between atoms: _380  and  _381
REMARK  151  A    between atoms: _384  and  _386
REMARK  152  A    between atoms: _386  and  _387
REMARK  153  A    between atoms: _386  and  _389
REMARK  154  A    between atoms: _389  and  _390
REMARK  155  A    between atoms: _390  and  _391
REMARK  156  A    between atoms: _394  and  _396
REMARK  157  A    between atoms: _396  and  _397
REMARK  158  A    between atoms: _396  and  _399
REMARK  159  A    between atoms: _402  and  _404
REMARK  160  A    between atoms: _404  and  _405
REMARK  161  A    between atoms: _404  and  _407
REMARK  162  A    between atoms: _407  and  _408
REMARK  163  A    between atoms: _408  and  _409
REMARK  164  A    between atoms: _411  and  _413
REMARK  165  A    between atoms: _413  and  _414
REMARK  166  A    between atoms: _413  and  _416
REMARK  167  A    between atoms: _416  and  _417
REMARK  168  A    between atoms: _420  and  _422
REMARK  169  A    between atoms: _422  and  _423
REMARK  170  A    between atoms: _422  and  _425
REMARK  171  A    between atoms: _425  and  _426
REMARK  172  A    between atoms: _431  and  _432
REMARK  173  A    between atoms: _434  and  _436
REMARK  174  A    between atoms: _436  and  _437
REMARK  175  A    between atoms: _436  and  _439
REMARK  176  A    between atoms: _439  and  _440
REMARK  177  A    between atoms: _445  and  _447
REMARK  178  A    between atoms: _447  and  _448
REMARK  179  A    between atoms: _447  and  _450
REMARK  180  A    between atoms: _450  and  _451
REMARK  181  A    between atoms: _454  and  _456
REMARK  182  A    between atoms: _456  and  _457
REMARK  183  A    between atoms: _456  and  _459
REMARK  184  A    between atoms: _459  and  _460
REMARK  185  A    between atoms: _465  and  _466
REMARK  186  A    between atoms: _468  and  _470
REMARK  187  A    between atoms: _470  and  _471
REMARK  188  A    between atoms: _470  and  _473
REMARK  189  A    between atoms: _473  and  _474
REMARK  190  A    between atoms: _477  and  _479
REMARK  191  A    between atoms: _479  and  _480
REMARK  192  A    between atoms: _482  and  _484
REMARK  193  A    between atoms: _484  and  _485
REMARK  194  A    between atoms: _484  and  _487
REMARK  195  A    between atoms: _487  and  _488
REMARK  196  A    between atoms: _488  and  _489
REMARK  197  A    between atoms: _489  and  _490
REMARK  198  A    between atoms: _499  and  _501
REMARK  199  A    between atoms: _501  and  _502
REMARK  200  A    between atoms: _501  and  _504
REMARK  201  A    between atoms: _504  and  _505
REMARK  202  A    between atoms: _508  and  _510
REMARK  203  A    between atoms: _510  and  _511
REMARK  204  A    between atoms: _510  and  _513
REMARK  205  A    between atoms: _515  and  _517
REMARK  206  A    between atoms: _517  and  _518
REMARK  207  A    between atoms: _517  and  _520
REMARK  208  A    between atoms: _520  and  _521
REMARK  209  A    between atoms: _524  and  _526
REMARK  210  A    between atoms: _526  and  _527
REMARK  211  A    between atoms: _526  and  _529
REMARK  212  A    between atoms: _529  and  _530
REMARK  213  A    between atoms: _533  and  _535
REMARK  214  A    between atoms: _535  and  _536
REMARK  215  A    between atoms: _535  and  _538
REMARK  216  A    between atoms: _541  and  _543
REMARK  217  A    between atoms: _543  and  _544
REMARK  218  A    between atoms: _547  and  _549
REMARK  219  A    between atoms: _549  and  _550
REMARK  220  A    between atoms: _552  and  _554
REMARK  221  A    between atoms: _554  and  _555
REMARK  222  A    between atoms: _554  and  _557
REMARK  223  A    between atoms: _557  and  _558
REMARK  224  A    between atoms: _561  and  _563
REMARK  225  A    between atoms: _563  and  _564
REMARK  226  A    between atoms: _563  and  _566
REMARK  227  A    between atoms: _566  and  _567
REMARK  228  A    between atoms: _572  and  _573
REMARK  229  A    between atoms: _575  and  _577
REMARK  230  A    between atoms: _577  and  _578
REMARK  231  A    between atoms: _577  and  _580
REMARK  232  A    between atoms: _580  and  _581
REMARK  233  A    between atoms: _586  and  _588
REMARK  234  A    between atoms: _588  and  _589
REMARK  235  A    between atoms: _588  and  _591
REMARK  236  A    between atoms: _591  and  _592
REMARK  237  A    between atoms: _595  and  _597
REMARK  238  A    between atoms: _597  and  _598
REMARK  239  A    between atoms: _597  and  _600
REMARK  240  A    between atoms: _602  and  _604
REMARK  241  A    between atoms: _604  and  _605
REMARK  242  A    between atoms: _604  and  _607
REMARK  243  A    between atoms: _609  and  _611
REMARK  244  A    between atoms: _611  and  _612
REMARK  245  A    between atoms: _611  and  _614
REMARK  246  A    between atoms: _614  and  _615
REMARK  247  A    between atoms: _620  and  _622
REMARK  248  A    between atoms: _622  and  _623
REMARK  249  A    between atoms: _622  and  _625
REMARK  250  A    between atoms: _625  and  _626
REMARK  251  A    between atoms: _626  and  _627
REMARK  252  A    between atoms: _630  and  _632
REMARK  253  A    between atoms: _632  and  _633
REMARK  254  A    between atoms: _632  and  _635
REMARK  255  A    between atoms: _635  and  _636
REMARK  256  A    between atoms: _639  and  _641
REMARK  257  A    between atoms: _641  and  _642
REMARK  258  A    between atoms: _641  and  _644
REMARK  259  A    between atoms: _647  and  _649
REMARK  260  A    between atoms: _649  and  _650
REMARK  261  A    between atoms: _649  and  _652
REMARK  262  A    between atoms: _652  and  _653
REMARK  263  A    between atoms: _656  and  _658
REMARK  264  A    between atoms: _658  and  _659
REMARK  265  A    between atoms: _658  and  _661
REMARK  266  A    between atoms: _661  and  _662
REMARK  267  A    between atoms: _667  and  _668
REMARK  268  A    between atoms: _670  and  _672
REMARK  269  A    between atoms: _672  and  _673
REMARK  270  A    between atoms: _672  and  _675
REMARK  271  A    between atoms: _675  and  _676
REMARK  272  A    between atoms: _678  and  _680
REMARK  273  A    between atoms: _680  and  _681
REMARK  274  A    between atoms: _680  and  _683
REMARK  275  A    between atoms: _686  and  _688
REMARK  276  A    between atoms: _688  and  _689
REMARK  277  A    between atoms: _691  and  _693
REMARK  278  A    between atoms: _693  and  _694
REMARK  279  A    between atoms: _697  and  _699
REMARK  280  A    between atoms: _699  and  _700
REMARK  281  A    between atoms: _699  and  _702
REMARK  282  A    between atoms: _702  and  _703
REMARK  283  A    between atoms: _706  and  _708
REMARK  284  A    between atoms: _708  and  _709
REMARK  285  A    between atoms: _708  and  _711
REMARK  286  A    between atoms: _711  and  _712
REMARK  287  A    between atoms: _714  and  _716
REMARK  288  A    between atoms: _716  and  _717
REMARK  289  A    between atoms: _720  and  _722
REMARK  290  A    between atoms: _722  and  _723
REMARK  291  A    between atoms: _722  and  _725
REMARK  292  A    between atoms: _725  and  _726
REMARK  293  A    between atoms: _731  and  _733
REMARK  294  A    between atoms: _733  and  _734
REMARK  295  A    between atoms: _733  and  _736
REMARK  296  A    between atoms: _736  and  _737
REMARK                            x       y       z     vdW  Elec       q    Type
REMARK                         _______ _______ _______ _____ _____    ______ ____
ROOT
ATOM      1  CA  GLU A   1     -17.402  25.764 -87.359  0.00  0.00    +0.134 C 
ENDROOT
BRANCH   1   2
ATOM      2  N   GLU A   1     -17.914  27.079 -87.707  0.00  0.00    -0.239 NA
ATOM      3  H   GLU A   1     -18.371  27.649 -86.967  0.00  0.00    +0.142 HD
ENDBRANCH   1   2
BRANCH   1   4
ATOM      4  C   GLU A   1     -18.590  24.929 -86.863  0.00  0.00    +0.224 C 
ATOM      5  O   GLU A   1     -18.581  24.386 -85.755  0.00  0.00    -0.287 OA
ENDBRANCH   1   4
BRANCH   1   6
ATOM      6  CB  GLU A   1     -16.329  25.883 -86.269  0.00  0.00    +0.037 C 
BRANCH   6   7
ATOM      7  CG  GLU A   1     -15.325  24.742 -86.253  0.00  0.00    +0.116 C 
BRANCH   7   8
ATOM      8  CD  GLU A   1     -14.887  24.358 -84.826  0.00  0.00    +0.365 C 
ATOM      9  OE2 GLU A   1     -15.591  24.732 -83.844  0.00  0.00    -0.246 OA
ATOM     10  OE1 GLU A   1     -13.836  23.672 -84.690  0.00  0.00    -0.246 OA
ENDBRANCH   7   8
ENDBRANCH   6   7
ENDBRANCH   1   6
TORSDOF 5
REMARK  Name = ../refined-set-2016/2wva/2wva_pocket.pdb
REMARK  296 active torsions:
REMARK  status: ('A' for Active; 'I' for Inactive)
REMARK    1  A    between atoms: _1  and  _3
REMARK    2  A    between atoms: _3  and  _4
REMARK    3  A    between atoms: _3  and  _6
REMARK    4  A    between atoms: _6  and  _7
REMARK    5  A    between atoms: _10  and  _12
REMARK    6  A    between atoms: _12  and  _13
REMARK    7  A    between atoms: _12  and  _15
REMARK    8  A    between atoms: _15  and  _16
REMARK    9  A    between atoms: _22  and  _24
REMARK   10  A    between atoms: _24  and  _25
REMARK   11  A    between atoms: _24  and  _27
REMARK   12  A    between atoms: _27  and  _28
REMARK   13  A    between atoms: _31  and  _33
REMARK   14  A    between atoms: _33  and  _34
REMARK   15  A    between atoms: _33  and  _36
REMARK   16  A    between atoms: _36  and  _37
REMARK   17  A    between atoms: _42  and  _43
REMARK   18  A    between atoms: _45  and  _47
REMARK   19  A    between atoms: _47  and  _48
REMARK   20  A    between atoms: _47  and  _50
REMARK   21  A    between atoms: _50  and  _51
REMARK   22  A    between atoms: _56  and  _58
REMARK   23  A    between atoms: _58  and  _59
REMARK   24  A    between atoms: _58  and  _61
REMARK   25  A    between atoms: _61  and  _62
REMARK   26  A    between atoms: _62  and  _63
REMARK   27  A    between atoms: _66  and  _68
REMARK   28  A    between atoms: _68  and  _69
REMARK   29  A    between atoms: _68  and  _71
REMARK   30  A    between atoms: _71  and  _72
REMARK   31  A    between atoms: _75  and  _77
REMARK   32  A    between atoms: _77  and  _78
REMARK   33  A    between atoms: _80  and  _82
REMARK   34  A    between atoms: _82  and  _83
REMARK   35  A    between atoms: _82  and  _85
REMARK   36  A    between atoms: _85  and  _86
REMARK   37  A    between atoms: _89  and  _91
REMARK   38  A    between atoms: _91  and  _92
REMARK   39  A    between atoms: _91  and  _94
REMARK   40  A    between atoms: _94  and  _95
REMARK   41  A    between atoms: _97  and  _99
REMARK   42  A    between atoms: _99  and  _100
REMARK   43  A    between atoms: _99  and  _102
REMARK   44  A    between atoms: _102  and  _103
REMARK   45  A    between atoms: _113  and  _115
REMARK   46  A    between atoms: _115  and  _116
REMARK   47  A    between atoms: _115  and  _118
REMARK   48  A    between atoms: _118  and  _119
REMARK   49  A    between atoms: _125  and  _127
REMARK   50  A    between atoms: _127  and  _128
REMARK   51  A    between atoms: _127  and  _130
REMARK   52  A    between atoms: _130  and  _131
REMARK   53  A    between atoms: _136  and  _138
REMARK   54  A    between atoms: _138  and  _139
REMARK   55  A    between atoms: _138  and  _141
REMARK   56  A    between atoms: _141  and  _142
REMARK   57  A    between atoms: _142  and  _143
REMARK   58  A    between atoms: _146  and  _148
REMARK   59  A    between atoms: _148  and  _149
REMARK   60  A    between atoms: _148  and  _151
REMARK   61  A    between atoms: _151  and  _152
REMARK   62  A    between atoms: _162  and  _164
REMARK   63  A    between atoms: _164  and  _165
REMARK   64  A    between atoms: _167  and  _169
REMARK   65  A    between atoms: _169  and  _170
REMARK   66  A    between atoms: _169  and  _172
REMARK   67  A    between atoms: _172  and  _173
REMARK   68  A    between atoms: _178  and  _180
REMARK   69  A    between atoms: _180  and  _181
REMARK   70  A    between atoms: _180  and  _183
REMARK   71  A    between atoms: _183  and  _184
REMARK   72  A    between atoms: _187  and  _189
REMARK   73  A    between atoms: _189  and  _190
REMARK   74  A    between atoms: _192  and  _194
REMARK   75  A    between atoms: _194  and  _195
REMARK   76  A    between atoms: _194  and  _197
REMARK   77  A    between atoms: _197  and  _198
REMARK   78  A    between atoms: _208  and  _210
REMARK   79  A    between atoms: _210  and  _211
REMARK   80  A    between atoms: _210  and  _213
REMARK   81  A    between atoms: _213  and  _214
REMARK   82  A    between atoms: _216  and  _218
REMARK   83  A    between atoms: _218  and  _219
REMARK   84  A    between atoms: _218  and  _221
REMARK   85  A    between atoms: _221  and  _222
REMARK   86  A    between atoms: _222  and  _223
REMARK   87  A    between atoms: _225  and  _227
REMARK   88  A    between atoms: _227  and  _228
REMARK   89  A    between atoms: _227  and  _230
REMARK   90  A    between atoms: _233  and  _235
REMARK   91  A    between atoms: _235  and  _236
REMARK   92  A    between atoms: _238  and  _240
REMARK   93  A    between atoms: _240  and  _241
REMARK   94  A    between atoms: _240  and  _243
REMARK   95  A    between atoms: _243  and  _244
REMARK   96  A    between atoms: _247  and  _249
REMARK   97  A    between atoms: _249  and  _250
REMARK   98  A    between atoms: _252  and  _254
REMARK   99  A    between atoms: _254  and  _255
REMARK  100  A    between atoms: _254  and  _257
REMARK  101  A    between atoms: _257  and  _258
REMARK  102  A    between atoms: _260  and  _262
REMARK  103  A    between atoms: _262  and  _263
REMARK  104  A    between atoms: _262  and  _265
REMARK  105  A    between atoms: _265  and  _266
REMARK  106  A    between atoms: _272  and  _274
REMARK  107  A    between atoms: _274  and  _275
REMARK  108  A    between atoms: _274  and  _277
REMARK  109  A    between atoms: _277  and  _278
REMARK  110  A    between atoms: _278  and  _279
REMARK  111  A    between atoms: _284  and  _286
REMARK  112  A    between atoms: _286  and  _287
REMARK  113  A    between atoms: _286  and  _289
REMARK  114  A    between atoms: _289  and  _290
REMARK  115  A    between atoms: _293  and  _295
REMARK  116  A    between atoms: _295  and  _296
REMARK  117  A    between atoms: _295  and  _298
REMARK  118  A    between atoms: _298  and  _299
REMARK  119  A    between atoms: _302  and  _304
REMARK  120  A    between atoms: _304  and  _305
REMARK  121  A    between atoms: _304  and  _307
REMARK  122  A    between atoms: _307  and  _308
REMARK  123  A    between atoms: _311  and  _313
REMARK  124  A    between atoms: _313  and  _314
REMARK  125  A    between atoms: _313  and  _316
REMARK  126  A    between atoms: _316  and  _317
REMARK  127  A    between atoms: _322  and  _324
REMARK  128  A    between atoms: _324  and  _325
REMARK  129  A    between atoms: _324  and  _327
REMARK  130  A    between atoms: _327  and  _328
REMARK  131  A    between atoms: _333  and  _335
REMARK  132  A    between atoms: _335  and  _336
REMARK  133  A    between atoms: _335  and  _338
REMARK  134  A    between atoms: _338  and  _339
REMARK  135  A    between atoms: _344  and  _345
REMARK  136  A    between atoms: _347  and  _349
REMARK  137  A    between atoms: _349  and  _350
REMARK  138  A    between atoms: _352  and  _354
REMARK  139  A    between atoms: _354  and  _355
REMARK  140  A    between atoms: _354  and  _357
REMARK  141  A    between atoms: _357  and  _358
REMARK  142  A    between atoms: _363  and  _364
REMARK  143  A    between atoms: _366  and  _368
REMARK  144  A    between atoms: _368  and  _369
REMARK  145  A    between atoms: _368  and  _371
REMARK  146  A    between atoms: _371  and  _372
REMARK  147  A    between atoms: _375  and  _377
REMARK  148  A    between atoms: _377  and  _378
REMARK  149  A    between atoms: _377  and  _380
REMARK  150  A    between atoms: _380  and  _381
REMARK  151  A    between atoms: _384  and  _386
REMARK  152  A    between atoms: _386  and  _387
REMARK  153  A    between atoms: _386  and  _389
REMARK  154  A    between atoms: _389  and  _390
REMARK  155  A    between atoms: _390  and  _391
REMARK  156  A    between atoms: _394  and  _396
REMARK  157  A    between atoms: _396  and  _397
REMARK  158  A    between atoms: _396  and  _399
REMARK  159  A    between atoms: _402  and  _404
REMARK  160  A    between atoms: _404  and  _405
REMARK  161  A    between atoms: _404  and  _407
REMARK  162  A    between atoms: _407  and  _408
REMARK  163  A    between atoms: _408  and  _409
REMARK  164  A    between atoms: _411  and  _413
REMARK  165  A    between atoms: _413  and  _414
REMARK  166  A    between atoms: _413  and  _416
REMARK  167  A    between atoms: _416  and  _417
REMARK  168  A    between atoms: _420  and  _422
REMARK  169  A    between atoms: _422  and  _423
REMARK  170  A    between atoms: _422  and  _425
REMARK  171  A    between atoms: _425  and  _426
REMARK  172  A    between atoms: _431  and  _432
REMARK  173  A    between atoms: _434  and  _436
REMARK  174  A    between atoms: _436  and  _437
REMARK  175  A    between atoms: _436  and  _439
REMARK  176  A    between atoms: _439  and  _440
REMARK  177  A    between atoms: _445  and  _447
REMARK  178  A    between atoms: _447  and  _448
REMARK  179  A    between atoms: _447  and  _450
REMARK  180  A    between atoms: _450  and  _451
REMARK  181  A    between atoms: _454  and  _456
REMARK  182  A    between atoms: _456  and  _457
REMARK  183  A    between atoms: _456  and  _459
REMARK  184  A    between atoms: _459  and  _460
REMARK  185  A    between atoms: _465  and  _466
REMARK  186  A    between atoms: _468  and  _470
REMARK  187  A    between atoms: _470  and  _471
REMARK  188  A    between atoms: _470  and  _473
REMARK  189  A    between atoms: _473  and  _474
REMARK  190  A    between atoms: _477  and  _479
REMARK  191  A    between atoms: _479  and  _480
REMARK  192  A    between atoms: _482  and  _484
REMARK  193  A    between atoms: _484  and  _485
REMARK  194  A    between atoms: _484  and  _487
REMARK  195  A    between atoms: _487  and  _488
REMARK  196  A    between atoms: _488  and  _489
REMARK  197  A    between atoms: _489  and  _490
REMARK  198  A    between atoms: _499  and  _501
REMARK  199  A    between atoms: _501  and  _502
REMARK  200  A    between atoms: _501  and  _504
REMARK  201  A    between atoms: _504  and  _505
REMARK  202  A    between atoms: _508  and  _510
REMARK  203  A    between atoms: _510  and  _511
REMARK  204  A    between atoms: _510  and  _513
REMARK  205  A    between atoms: _515  and  _517
REMARK  206  A    between atoms: _517  and  _518
REMARK  207  A    between atoms: _517  and  _520
REMARK  208  A    between atoms: _520  and  _521
REMARK  209  A    between atoms: _524  and  _526
REMARK  210  A    between atoms: _526  and  _527
REMARK  211  A    between atoms: _526  and  _529
REMARK  212  A    between atoms: _529  and  _530
REMARK  213  A    between atoms: _533  and  _535
REMARK  214  A    between atoms: _535  and  _536
REMARK  215  A    between atoms: _535  and  _538
REMARK  216  A    between atoms: _541  and  _543
REMARK  217  A    between atoms: _543  and  _544
REMARK  218  A    between atoms: _547  and  _549
REMARK  219  A    between atoms: _549  and  _550
REMARK  220  A    between atoms: _552  and  _554
REMARK  221  A    between atoms: _554  and  _555
REMARK  222  A    between atoms: _554  and  _557
REMARK  223  A    between atoms: _557  and  _558
REMARK  224  A    between atoms: _561  and  _563
REMARK  225  A    between atoms: _563  and  _564
REMARK  226  A    between atoms: _563  and  _566
REMARK  227  A    between atoms: _566  and  _567
REMARK  228  A    between atoms: _572  and  _573
REMARK  229  A    between atoms: _575  and  _577
REMARK  230  A    between atoms: _577  and  _578
REMARK  231  A    between atoms: _577  and  _580
REMARK  232  A    between atoms: _580  and  _581
REMARK  233  A    between atoms: _586  and  _588
REMARK  234  A    between atoms: _588  and  _589
REMARK  235  A    between atoms: _588  and  _591
REMARK  236  A    between atoms: _591  and  _592
REMARK  237  A    between atoms: _595  and  _597
REMARK  238  A    between atoms: _597  and  _598
REMARK  239  A    between atoms: _597  and  _600
REMARK  240  A    between atoms: _602  and  _604
REMARK  241  A    between atoms: _604  and  _605
REMARK  242  A    between atoms: _604  and  _607
REMARK  243  A    between atoms: _609  and  _611
REMARK  244  A    between atoms: _611  and  _612
REMARK  245  A    between atoms: _611  and  _614
REMARK  246  A    between atoms: _614  and  _615
REMARK  247  A    between atoms: _620  and  _622
REMARK  248  A    between atoms: _622  and  _623
REMARK  249  A    between atoms: _622  and  _625
REMARK  250  A    between atoms: _625  and  _626
REMARK  251  A    between atoms: _626  and  _627
REMARK  252  A    between atoms: _630  and  _632
REMARK  253  A    between atoms: _632  and  _633
REMARK  254  A    between atoms: _632  and  _635
REMARK  255  A    between atoms: _635  and  _636
REMARK  256  A    between atoms: _639  and  _641
REMARK  257  A    between atoms: _641  and  _642
REMARK  258  A    between atoms: _641  and  _644
REMARK  259  A    between atoms: _647  and  _649
REMARK  260  A    between atoms: _649  and  _650
REMARK  261  A    between atoms: _649  and  _652
REMARK  262  A    between atoms: _652  and  _653
REMARK  263  A    between atoms: _656  and  _658
REMARK  264  A    between atoms: _658  and  _659
REMARK  265  A    between atoms: _658  and  _661
REMARK  266  A    between atoms: _661  and  _662
REMARK  267  A    between atoms: _667  and  _668
REMARK  268  A    between atoms: _670  and  _672
REMARK  269  A    between atoms: _672  and  _673
REMARK  270  A    between atoms: _672  and  _675
REMARK  271  A    between atoms: _675  and  _676
REMARK  272  A    between atoms: _678  and  _680
REMARK  273  A    between atoms: _680  and  _681
REMARK  274  A    between atoms: _680  and  _683
REMARK  275  A    between atoms: _686  and  _688
REMARK  276  A    between atoms: _688  and  _689
REMARK  277  A    between atoms: _691  and  _693
REMARK  278  A    between atoms: _693  and  _694
REMARK  279  A    between atoms: _697  and  _699
REMARK  280  A    between atoms: _699  and  _700
REMARK  281  A    between atoms: _699  and  _702
REMARK  282  A    between atoms: _702  and  _703
REMARK  283  A    between atoms: _706  and  _708
REMARK  284  A    between atoms: _708  and  _709
REMARK  285  A    between atoms: _708  and  _711
REMARK  286  A    between atoms: _711  and  _712
REMARK  287  A    between atoms: _714  and  _716
REMARK  288  A    between atoms: _716  and  _717
REMARK  289  A    between atoms: _720  and  _722
REMARK  290  A    between atoms: _722  and  _723
REMARK  291  A    between atoms: _722  and  _725
REMARK  292  A    between atoms: _725  and  _726
REMARK  293  A    between atoms: _731  and  _733
REMARK  294  A    between atoms: _733  and  _734
REMARK  295  A    between atoms: _733  and  _736
REMARK  296  A    between atoms: _736  and  _737
REMARK                            x       y       z     vdW  Elec       q    Type
REMARK                         _______ _______ _______ _____ _____    ______ ____
ROOT
ATOM      1  CA  ILE A   4     -16.555  26.365 -78.269  0.00  0.00    +0.149 C 
ENDROOT
BRANCH   1   2
ATOM      2  C   ILE A   4     -15.134  26.775 -77.927  0.00  0.00    +0.241 C 
ATOM      3  O   ILE A   4     -14.350  25.965 -77.427  0.00  0.00    -0.273 OA
ATOM      4  N   GLY A   5     -14.801  28.029 -78.218  0.00  0.00    -0.295 N 
ATOM      5  H   GLY A   5     -15.534  28.684 -78.557  0.00  0.00    +0.150 HD
BRANCH   4   6
ATOM      6  CA  GLY A   5     -13.440  28.504 -78.074  0.00  0.00    +0.176 C 
BRANCH   6   7
ATOM      7  C   GLY A   5     -12.644  28.425 -79.366  0.00  0.00    +0.243 C 
ATOM      8  O   GLY A   5     -11.586  29.044 -79.472  0.00  0.00    -0.273 OA
ATOM      9  N   TRP A   6     -13.142  27.661 -80.347  0.00  0.00    -0.297 N 
ATOM     10  H   TRP A   6     -14.000  27.101 -80.169  0.00  0.00    +0.150 HD
BRANCH   9  11
ATOM     11  CA  TRP A   6     -12.506  27.596 -81.663  0.00  0.00    +0.153 C 
BRANCH  11  12
ATOM     12  C   TRP A   6     -12.301  28.993 -82.225  0.00  0.00    +0.241 C 
ATOM     13  N   SER A   7     -13.304  29.850 -82.073  0.00  0.00    -0.296 N 
ATOM     14  H   SER A   7     -14.120  29.585 -81.485  0.00  0.00    +0.150 HD
ATOM     15  O   TRP A   6     -11.237  29.308 -82.748  0.00  0.00    -0.273 OA
BRANCH  13  16
ATOM     16  CA  SER A   7     -13.277  31.160 -82.720  0.00  0.00    +0.166 C 
BRANCH  16  17
ATOM     17  CB  SER A   7     -12.070  32.028 -82.393  0.00  0.00    +0.229 C 
ATOM     18  OG  SER A   7     -11.605  32.785 -83.238  0.00  0.00    -0.286 OA
ENDBRANCH  16  17
BRANCH  16  19
ATOM     19  C   SER A   7     -14.564  31.935 -82.434  0.00  0.00    +0.165 C 
BRANCH  19  20
ATOM     20  O   SER A   7     -14.672  32.247 -81.055  0.00  0.00    -0.380 OA
ATOM     21  H   SER A   7     -14.681  31.409 -80.528  0.00  0.00    +0.211 HD
ENDBRANCH  19  20
ENDBRANCH  16  19
ENDBRANCH  13  16
ENDBRANCH  11  12
BRANCH  11  22
ATOM     22  CB  TRP A   6     -13.349  26.764 -82.634  0.00  0.00    +0.057 C 
BRANCH  22  23
ATOM     23  CG  TRP A   6     -13.162  27.157 -84.068  0.00  0.00    -0.002 A 
ATOM     24  CD2 TRP A   6     -13.956  28.090 -84.823  0.00  0.00    +0.013 A 
ATOM     25  CE3 TRP A   6     -15.074  28.885 -84.524  0.00  0.00    +0.001 A 
ATOM     26  CZ3 TRP A   6     -15.593  29.706 -85.526  0.00  0.00    +0.000 A 
ATOM     27  CH2 TRP A   6     -15.025  29.734 -86.820  0.00  0.00    +0.001 A 
ATOM     28  CZ2 TRP A   6     -13.934  28.971 -87.129  0.00  0.00    +0.017 A 
ATOM     29  CE2 TRP A   6     -13.408  28.143 -86.122  0.00  0.00    +0.056 A 
ATOM     30  NE1 TRP A   6     -12.341  27.281 -86.157  0.00  0.00    -0.352 N 
ATOM     31  HE1 TRP A   6     -11.736  27.104 -86.984  0.00  0.00    +0.166 HD
ATOM     32  CD1 TRP A   6     -12.201  26.692 -84.929  0.00  0.00    +0.068 A 
ENDBRANCH  22  23
ENDBRANCH  11  22
ENDBRANCH   9  11
ENDBRANCH   6   7
ENDBRANCH   4   6
ENDBRANCH   1   2
BRANCH   1  34
ATOM     33  C   HIS A   3     -15.855  24.710 -79.865  0.00  0.00    +0.241 C 
ATOM     34  N   ILE A   4     -16.541  24.985 -78.759  0.00  0.00    -0.297 N 
ATOM     35  H   ILE A   4     -17.056  24.236 -78.253  0.00  0.00    +0.150 HD
ATOM     36  O   HIS A   3     -15.208  25.574 -80.467  0.00  0.00    -0.273 OA
BRANCH  33  37
ATOM     37  CA  HIS A   3     -15.872  23.283 -80.386  0.00  0.00    +0.155 C 
BRANCH  37  40
ATOM     38  C   GLY A   2     -17.993  23.096 -81.582  0.00  0.00    +0.243 C 
ATOM     39  O   GLY A   2     -18.633  22.956 -80.548  0.00  0.00    -0.273 OA
ATOM     40  N   HIS A   3     -16.673  23.251 -81.599  0.00  0.00    -0.297 N 
ATOM     41  H   HIS A   3     -16.194  23.353 -82.516  0.00  0.00    +0.150 HD
BRANCH  38  42
ATOM     42  CA  GLY A   2     -18.693  23.116 -82.925  0.00  0.00    +0.176 C 
BRANCH  42  45
ATOM     43  C   TRP A   1     -17.863  21.049 -83.866  0.00  0.00    +0.239 C 
ATOM     44  O   TRP A   1     -18.215  20.406 -82.881  0.00  0.00    -0.274 OA
ATOM     45  N   GLY A   2     -17.988  22.368 -83.951  0.00  0.00    -0.296 N 
ATOM     46  H   GLY A   2     -17.576  22.872 -84.762  0.00  0.00    +0.150 HD
BRANCH  43  47
ATOM     47  CA  TRP A   1     -17.242  20.349 -85.065  0.00  0.00    +0.149 C 
BRANCH  47  48
ATOM     48  N   TRP A   1     -17.988  20.705 -86.285  0.00  0.00    -0.238 NA
ATOM     49  H   TRP A   1     -17.593  21.410 -86.939  0.00  0.00    +0.142 HD
ENDBRANCH  47  48
BRANCH  47  50
ATOM     50  CB  TRP A   1     -15.777  20.751 -85.192  0.00  0.00    +0.054 C 
BRANCH  50  51
ATOM     51  CG  TRP A   1     -14.805  20.038 -84.291  0.00  0.00    -0.002 A 
ATOM     52  CD1 TRP A   1     -13.901  20.625 -83.446  0.00  0.00    +0.068 A 
ATOM     53  NE1 TRP A   1     -13.143  19.664 -82.819  0.00  0.00    -0.352 N 
ATOM     54  HE1 TRP A   1     -12.390  19.845 -82.125  0.00  0.00    +0.166 HD
ATOM     55  CE2 TRP A   1     -13.540  18.435 -83.256  0.00  0.00    +0.056 A 
ATOM     56  CZ2 TRP A   1     -13.071  17.165 -82.905  0.00  0.00    +0.017 A 
ATOM     57  CH2 TRP A   1     -13.662  16.081 -83.498  0.00  0.00    +0.001 A 
ATOM     58  CZ3 TRP A   1     -14.697  16.234 -84.423  0.00  0.00    +0.000 A 
ATOM     59  CE3 TRP A   1     -15.170  17.502 -84.778  0.00  0.00    +0.001 A 
ATOM     60  CD2 TRP A   1     -14.582  18.619 -84.181  0.00  0.00    +0.013 A 
ENDBRANCH  50  51
ENDBRANCH  47  50
ENDBRANCH  43  47
ENDBRANCH  42  45
ENDBRANCH  38  42
ENDBRANCH  37  40
BRANCH  37  61
ATOM     61  CB  HIS A   3     -14.437  22.866 -80.727  0.00  0.00    +0.076 C 
BRANCH  61  62
ATOM     62  CG  HIS A   3     -13.536  22.730 -79.538  0.00  0.00    +0.082 A 
ATOM     63  ND1 HIS A   3     -13.155  23.807 -78.762  0.00  0.00    -0.227 NA
ATOM     64  CE1 HIS A   3     -12.359  23.388 -77.790  0.00  0.00    +0.199 A 
ATOM     65  NE2 HIS A   3     -12.200  22.080 -77.916  0.00  0.00    -0.221 NA
ATOM     66  CD2 HIS A   3     -12.918  21.646 -79.009  0.00  0.00    +0.115 A 
ENDBRANCH  61  62
ENDBRANCH  37  61
ENDBRANCH  33  37
ENDBRANCH   1  34
BRANCH   1  67
ATOM     67  CB  ILE A   4     -17.505  26.605 -77.064  0.00  0.00    +0.027 C 
ATOM     68  CG2 ILE A   4     -18.970  26.348 -77.457  0.00  0.00    +0.002 C 
BRANCH  67  69
ATOM     69  CG1 ILE A   4     -17.087  25.769 -75.860  0.00  0.00    +0.002 C 
ATOM     70  CD1 ILE A   4     -17.840  26.146 -74.582  0.00  0.00    +0.000 C 
ENDBRANCH  67  69
ENDBRANCH   1  67
TORSDOF 24
REMARK  Name = ../refined-set-2016/2wva/2wva_pocket.pdb
REMARK  296 active torsions:
REMARK  status: ('A' for Active; 'I' for Inactive)
REMARK    1  A    between atoms: _1  and  _3
REMARK    2  A    between atoms: _3  and  _4
REMARK    3  A    between atoms: _3  and  _6
REMARK    4  A    between atoms: _6  and  _7
REMARK    5  A    between atoms: _10  and  _12
REMARK    6  A    between atoms: _12  and  _13
REMARK    7  A    between atoms: _12  and  _15
REMARK    8  A    between atoms: _15  and  _16
REMARK    9  A    between atoms: _22  and  _24
REMARK   10  A    between atoms: _24  and  _25
REMARK   11  A    between atoms: _24  and  _27
REMARK   12  A    between atoms: _27  and  _28
REMARK   13  A    between atoms: _31  and  _33
REMARK   14  A    between atoms: _33  and  _34
REMARK   15  A    between atoms: _33  and  _36
REMARK   16  A    between atoms: _36  and  _37
REMARK   17  A    between atoms: _42  and  _43
REMARK   18  A    between atoms: _45  and  _47
REMARK   19  A    between atoms: _47  and  _48
REMARK   20  A    between atoms: _47  and  _50
REMARK   21  A    between atoms: _50  and  _51
REMARK   22  A    between atoms: _56  and  _58
REMARK   23  A    between atoms: _58  and  _59
REMARK   24  A    between atoms: _58  and  _61
REMARK   25  A    between atoms: _61  and  _62
REMARK   26  A    between atoms: _62  and  _63
REMARK   27  A    between atoms: _66  and  _68
REMARK   28  A    between atoms: _68  and  _69
REMARK   29  A    between atoms: _68  and  _71
REMARK   30  A    between atoms: _71  and  _72
REMARK   31  A    between atoms: _75  and  _77
REMARK   32  A    between atoms: _77  and  _78
REMARK   33  A    between atoms: _80  and  _82
REMARK   34  A    between atoms: _82  and  _83
REMARK   35  A    between atoms: _82  and  _85
REMARK   36  A    between atoms: _85  and  _86
REMARK   37  A    between atoms: _89  and  _91
REMARK   38  A    between atoms: _91  and  _92
REMARK   39  A    between atoms: _91  and  _94
REMARK   40  A    between atoms: _94  and  _95
REMARK   41  A    between atoms: _97  and  _99
REMARK   42  A    between atoms: _99  and  _100
REMARK   43  A    between atoms: _99  and  _102
REMARK   44  A    between atoms: _102  and  _103
REMARK   45  A    between atoms: _113  and  _115
REMARK   46  A    between atoms: _115  and  _116
REMARK   47  A    between atoms: _115  and  _118
REMARK   48  A    between atoms: _118  and  _119
REMARK   49  A    between atoms: _125  and  _127
REMARK   50  A    between atoms: _127  and  _128
REMARK   51  A    between atoms: _127  and  _130
REMARK   52  A    between atoms: _130  and  _131
REMARK   53  A    between atoms: _136  and  _138
REMARK   54  A    between atoms: _138  and  _139
REMARK   55  A    between atoms: _138  and  _141
REMARK   56  A    between atoms: _141  and  _142
REMARK   57  A    between atoms: _142  and  _143
REMARK   58  A    between atoms: _146  and  _148
REMARK   59  A    between atoms: _148  and  _149
REMARK   60  A    between atoms: _148  and  _151
REMARK   61  A    between atoms: _151  and  _152
REMARK   62  A    between atoms: _162  and  _164
REMARK   63  A    between atoms: _164  and  _165
REMARK   64  A    between atoms: _167  and  _169
REMARK   65  A    between atoms: _169  and  _170
REMARK   66  A    between atoms: _169  and  _172
REMARK   67  A    between atoms: _172  and  _173
REMARK   68  A    between atoms: _178  and  _180
REMARK   69  A    between atoms: _180  and  _181
REMARK   70  A    between atoms: _180  and  _183
REMARK   71  A    between atoms: _183  and  _184
REMARK   72  A    between atoms: _187  and  _189
REMARK   73  A    between atoms: _189  and  _190
REMARK   74  A    between atoms: _192  and  _194
REMARK   75  A    between atoms: _194  and  _195
REMARK   76  A    between atoms: _194  and  _197
REMARK   77  A    between atoms: _197  and  _198
REMARK   78  A    between atoms: _208  and  _210
REMARK   79  A    between atoms: _210  and  _211
REMARK   80  A    between atoms: _210  and  _213
REMARK   81  A    between atoms: _213  and  _214
REMARK   82  A    between atoms: _216  and  _218
REMARK   83  A    between atoms: _218  and  _219
REMARK   84  A    between atoms: _218  and  _221
REMARK   85  A    between atoms: _221  and  _222
REMARK   86  A    between atoms: _222  and  _223
REMARK   87  A    between atoms: _225  and  _227
REMARK   88  A    between atoms: _227  and  _228
REMARK   89  A    between atoms: _227  and  _230
REMARK   90  A    between atoms: _233  and  _235
REMARK   91  A    between atoms: _235  and  _236
REMARK   92  A    between atoms: _238  and  _240
REMARK   93  A    between atoms: _240  and  _241
REMARK   94  A    between atoms: _240  and  _243
REMARK   95  A    between atoms: _243  and  _244
REMARK   96  A    between atoms: _247  and  _249
REMARK   97  A    between atoms: _249  and  _250
REMARK   98  A    between atoms: _252  and  _254
REMARK   99  A    between atoms: _254  and  _255
REMARK  100  A    between atoms: _254  and  _257
REMARK  101  A    between atoms: _257  and  _258
REMARK  102  A    between atoms: _260  and  _262
REMARK  103  A    between atoms: _262  and  _263
REMARK  104  A    between atoms: _262  and  _265
REMARK  105  A    between atoms: _265  and  _266
REMARK  106  A    between atoms: _272  and  _274
REMARK  107  A    between atoms: _274  and  _275
REMARK  108  A    between atoms: _274  and  _277
REMARK  109  A    between atoms: _277  and  _278
REMARK  110  A    between atoms: _278  and  _279
REMARK  111  A    between atoms: _284  and  _286
REMARK  112  A    between atoms: _286  and  _287
REMARK  113  A    between atoms: _286  and  _289
REMARK  114  A    between atoms: _289  and  _290
REMARK  115  A    between atoms: _293  and  _295
REMARK  116  A    between atoms: _295  and  _296
REMARK  117  A    between atoms: _295  and  _298
REMARK  118  A    between atoms: _298  and  _299
REMARK  119  A    between atoms: _302  and  _304
REMARK  120  A    between atoms: _304  and  _305
REMARK  121  A    between atoms: _304  and  _307
REMARK  122  A    between atoms: _307  and  _308
REMARK  123  A    between atoms: _311  and  _313
REMARK  124  A    between atoms: _313  and  _314
REMARK  125  A    between atoms: _313  and  _316
REMARK  126  A    between atoms: _316  and  _317
REMARK  127  A    between atoms: _322  and  _324
REMARK  128  A    between atoms: _324  and  _325
REMARK  129  A    between atoms: _324  and  _327
REMARK  130  A    between atoms: _327  and  _328
REMARK  131  A    between atoms: _333  and  _335
REMARK  132  A    between atoms: _335  and  _336
REMARK  133  A    between atoms: _335  and  _338
REMARK  134  A    between atoms: _338  and  _339
REMARK  135  A    between atoms: _344  and  _345
REMARK  136  A    between atoms: _347  and  _349
REMARK  137  A    between atoms: _349  and  _350
REMARK  138  A    between atoms: _352  and  _354
REMARK  139  A    between atoms: _354  and  _355
REMARK  140  A    between atoms: _354  and  _357
REMARK  141  A    between atoms: _357  and  _358
REMARK  142  A    between atoms: _363  and  _364
REMARK  143  A    between atoms: _366  and  _368
REMARK  144  A    between atoms: _368  and  _369
REMARK  145  A    between atoms: _368  and  _371
REMARK  146  A    between atoms: _371  and  _372
REMARK  147  A    between atoms: _375  and  _377
REMARK  148  A    between atoms: _377  and  _378
REMARK  149  A    between atoms: _377  and  _380
REMARK  150  A    between atoms: _380  and  _381
REMARK  151  A    between atoms: _384  and  _386
REMARK  152  A    between atoms: _386  and  _387
REMARK  153  A    between atoms: _386  and  _389
REMARK  154  A    between atoms: _389  and  _390
REMARK  155  A    between atoms: _390  and  _391
REMARK  156  A    between atoms: _394  and  _396
REMARK  157  A    between atoms: _396  and  _397
REMARK  158  A    between atoms: _396  and  _399
REMARK  159  A    between atoms: _402  and  _404
REMARK  160  A    between atoms: _404  and  _405
REMARK  161  A    between atoms: _404  and  _407
REMARK  162  A    between atoms: _407  and  _408
REMARK  163  A    between atoms: _408  and  _409
REMARK  164  A    between atoms: _411  and  _413
REMARK  165  A    between atoms: _413  and  _414
REMARK  166  A    between atoms: _413  and  _416
REMARK  167  A    between atoms: _416  and  _417
REMARK  168  A    between atoms: _420  and  _422
REMARK  169  A    between atoms: _422  and  _423
REMARK  170  A    between atoms: _422  and  _425
REMARK  171  A    between atoms: _425  and  _426
REMARK  172  A    between atoms: _431  and  _432
REMARK  173  A    between atoms: _434  and  _436
REMARK  174  A    between atoms: _436  and  _437
REMARK  175  A    between atoms: _436  and  _439
REMARK  176  A    between atoms: _439  and  _440
REMARK  177  A    between atoms: _445  and  _447
REMARK  178  A    between atoms: _447  and  _448
REMARK  179  A    between atoms: _447  and  _450
REMARK  180  A    between atoms: _450  and  _451
REMARK  181  A    between atoms: _454  and  _456
REMARK  182  A    between atoms: _456  and  _457
REMARK  183  A    between atoms: _456  and  _459
REMARK  184  A    between atoms: _459  and  _460
REMARK  185  A    between atoms: _465  and  _466
REMARK  186  A    between atoms: _468  and  _470
REMARK  187  A    between atoms: _470  and  _471
REMARK  188  A    between atoms: _470  and  _473
REMARK  189  A    between atoms: _473  and  _474
REMARK  190  A    between atoms: _477  and  _479
REMARK  191  A    between atoms: _479  and  _480
REMARK  192  A    between atoms: _482  and  _484
REMARK  193  A    between atoms: _484  and  _485
REMARK  194  A    between atoms: _484  and  _487
REMARK  195  A    between atoms: _487  and  _488
REMARK  196  A    between atoms: _488  and  _489
REMARK  197  A    between atoms: _489  and  _490
REMARK  198  A    between atoms: _499  and  _501
REMARK  199  A    between atoms: _501  and  _502
REMARK  200  A    between atoms: _501  and  _504
REMARK  201  A    between atoms: _504  and  _505
REMARK  202  A    between atoms: _508  and  _510
REMARK  203  A    between atoms: _510  and  _511
REMARK  204  A    between atoms: _510  and  _513
REMARK  205  A    between atoms: _515  and  _517
REMARK  206  A    between atoms: _517  and  _518
REMARK  207  A    between atoms: _517  and  _520
REMARK  208  A    between atoms: _520  and  _521
REMARK  209  A    between atoms: _524  and  _526
REMARK  210  A    between atoms: _526  and  _527
REMARK  211  A    between atoms: _526  and  _529
REMARK  212  A    between atoms: _529  and  _530
REMARK  213  A    between atoms: _533  and  _535
REMARK  214  A    between atoms: _535  and  _536
REMARK  215  A    between atoms: _535  and  _538
REMARK  216  A    between atoms: _541  and  _543
REMARK  217  A    between atoms: _543  and  _544
REMARK  218  A    between atoms: _547  and  _549
REMARK  219  A    between atoms: _549  and  _550
REMARK  220  A    between atoms: _552  and  _554
REMARK  221  A    between atoms: _554  and  _555
REMARK  222  A    between atoms: _554  and  _557
REMARK  223  A    between atoms: _557  and  _558
REMARK  224  A    between atoms: _561  and  _563
REMARK  225  A    between atoms: _563  and  _564
REMARK  226  A    between atoms: _563  and  _566
REMARK  227  A    between atoms: _566  and  _567
REMARK  228  A    between atoms: _572  and  _573
REMARK  229  A    between atoms: _575  and  _577
REMARK  230  A    between atoms: _577  and  _578
REMARK  231  A    between atoms: _577  and  _580
REMARK  232  A    between atoms: _580  and  _581
REMARK  233  A    between atoms: _586  and  _588
REMARK  234  A    between atoms: _588  and  _589
REMARK  235  A    between atoms: _588  and  _591
REMARK  236  A    between atoms: _591  and  _592
REMARK  237  A    between atoms: _595  and  _597
REMARK  238  A    between atoms: _597  and  _598
REMARK  239  A    between atoms: _597  and  _600
REMARK  240  A    between atoms: _602  and  _604
REMARK  241  A    between atoms: _604  and  _605
REMARK  242  A    between atoms: _604  and  _607
REMARK  243  A    between atoms: _609  and  _611
REMARK  244  A    between atoms: _611  and  _612
REMARK  245  A    between atoms: _611  and  _614
REMARK  246  A    between atoms: _614  and  _615
REMARK  247  A    between atoms: _620  and  _622
REMARK  248  A    between atoms: _622  and  _623
REMARK  249  A    between atoms: _622  and  _625
REMARK  250  A    between atoms: _625  and  _626
REMARK  251  A    between atoms: _626  and  _627
REMARK  252  A    between atoms: _630  and  _632
REMARK  253  A    between atoms: _632  and  _633
REMARK  254  A    between atoms: _632  and  _635
REMARK  255  A    between atoms: _635  and  _636
REMARK  256  A    between atoms: _639  and  _641
REMARK  257  A    between atoms: _641  and  _642
REMARK  258  A    between atoms: _641  and  _644
REMARK  259  A    between atoms: _647  and  _649
REMARK  260  A    between atoms: _649  and  _650
REMARK  261  A    between atoms: _649  and  _652
REMARK  262  A    between atoms: _652  and  _653
REMARK  263  A    between atoms: _656  and  _658
REMARK  264  A    between atoms: _658  and  _659
REMARK  265  A    between atoms: _658  and  _661
REMARK  266  A    between atoms: _661  and  _662
REMARK  267  A    between atoms: _667  and  _668
REMARK  268  A    between atoms: _670  and  _672
REMARK  269  A    between atoms: _672  and  _673
REMARK  270  A    between atoms: _672  and  _675
REMARK  271  A    between atoms: _675  and  _676
REMARK  272  A    between atoms: _678  and  _680
REMARK  273  A    between atoms: _680  and  _681
REMARK  274  A    between atoms: _680  and  _683
REMARK  275  A    between atoms: _686  and  _688
REMARK  276  A    between atoms: _688  and  _689
REMARK  277  A    between atoms: _691  and  _693
REMARK  278  A    between atoms: _693  and  _694
REMARK  279  A    between atoms: _697  and  _699
REMARK  280  A    between atoms: _699  and  _700
REMARK  281  A    between atoms: _699  and  _702
REMARK  282  A    between atoms: _702  and  _703
REMARK  283  A    between atoms: _706  and  _708
REMARK  284  A    between atoms: _708  and  _709
REMARK  285  A    between atoms: _708  and  _711
REMARK  286  A    between atoms: _711  and  _712
REMARK  287  A    between atoms: _714  and  _716
REMARK  288  A    between atoms: _716  and  _717
REMARK  289  A    between atoms: _720  and  _722
REMARK  290  A    between atoms: _722  and  _723
REMARK  291  A    between atoms: _722  and  _725
REMARK  292  A    between atoms: _725  and  _726
REMARK  293  A    between atoms: _731  and  _733
REMARK  294  A    between atoms: _733  and  _734
REMARK  295  A    between atoms: _733  and  _736
REMARK  296  A    between atoms: _736  and  _737
REMARK                            x       y       z     vdW  Elec       q    Type
REMARK                         _______ _______ _______ _____ _____    ______ ____
ROOT
ATOM      1  CA  SER A   6     -16.517  30.180 -75.334  0.00  0.00    +0.178 C 
ENDROOT
BRANCH   1   4
ATOM      2  C   GLY A   5     -17.351  30.491 -73.055  0.00  0.00    +0.243 C 
ATOM      3  O   GLY A   5     -16.467  29.776 -72.577  0.00  0.00    -0.273 OA
ATOM      4  N   SER A   6     -17.458  30.743 -74.362  0.00  0.00    -0.295 N 
ATOM      5  H   SER A   6     -18.229  31.354 -74.699  0.00  0.00    +0.150 HD
BRANCH   2   6
ATOM      6  CA  GLY A   5     -18.399  31.120 -72.158  0.00  0.00    +0.176 C 
BRANCH   6   9
ATOM      7  C   ASP A   4     -17.780  33.437 -72.466  0.00  0.00    +0.241 C 
ATOM      8  O   ASP A   4     -16.614  33.206 -72.155  0.00  0.00    -0.273 OA
ATOM      9  N   GLY A   5     -18.707  32.489 -72.528  0.00  0.00    -0.295 N 
ATOM     10  H   GLY A   5     -19.667  32.731 -72.846  0.00  0.00    +0.150 HD
BRANCH   7  11
ATOM     11  CA  ASP A   4     -18.218  34.850 -72.835  0.00  0.00    +0.160 C 
BRANCH  11  13
ATOM     12  C   GLY A   3     -18.660  34.399 -75.196  0.00  0.00    +0.243 C 
ATOM     13  N   ASP A   4     -19.079  34.858 -74.014  0.00  0.00    -0.296 N 
ATOM     14  H   ASP A   4     -20.046  35.232 -73.931  0.00  0.00    +0.150 HD
ATOM     15  O   GLY A   3     -17.537  33.904 -75.373  0.00  0.00    -0.273 OA
BRANCH  12  16
ATOM     16  CA  GLY A   3     -19.646  34.505 -76.343  0.00  0.00    +0.176 C 
BRANCH  16  19
ATOM     17  C   VAL A   2     -18.319  35.459 -78.128  0.00  0.00    +0.241 C 
ATOM     18  O   VAL A   2     -18.304  36.566 -77.595  0.00  0.00    -0.273 OA
ATOM     19  N   GLY A   3     -18.961  34.419 -77.612  0.00  0.00    -0.295 N 
ATOM     20  H   GLY A   3     -18.971  33.520 -78.134  0.00  0.00    +0.150 HD
BRANCH  17  21
ATOM     21  CA  VAL A   2     -17.605  35.219 -79.453  0.00  0.00    +0.148 C 
BRANCH  21  23
ATOM     22  C   MET A   1     -18.114  36.159 -81.636  0.00  0.00    +0.238 C 
ATOM     23  N   VAL A   2     -17.790  36.341 -80.360  0.00  0.00    -0.297 N 
ATOM     24  H   VAL A   2     -17.666  37.309 -80.001  0.00  0.00    +0.150 HD
ATOM     25  O   MET A   1     -18.389  35.060 -82.119  0.00  0.00    -0.274 OA
BRANCH  22  26
ATOM     26  CA  MET A   1     -18.145  37.402 -82.490  0.00  0.00    +0.146 C 
BRANCH  26  27
ATOM     27  N   MET A   1     -16.977  37.408 -83.353  0.00  0.00    -0.238 NA
ATOM     28  H   MET A   1     -16.918  36.704 -84.116  0.00  0.00    +0.142 HD
ENDBRANCH  26  27
BRANCH  26  29
ATOM     29  CB  MET A   1     -19.415  37.378 -83.316  0.00  0.00    +0.038 C 
BRANCH  29  30
ATOM     30  CG  MET A   1     -20.136  38.694 -83.405  0.00  0.00    +0.060 C 
BRANCH  30  31
ATOM     31  SD  MET A   1     -21.855  38.376 -83.893  0.00  0.00    -0.139 S 
ATOM     32  CE  MET A   1     -21.667  38.158 -85.666  0.00  0.00    +0.069 C 
ENDBRANCH  30  31
ENDBRANCH  29  30
ENDBRANCH  26  29
ENDBRANCH  22  26
ENDBRANCH  21  23
BRANCH  21  33
ATOM     33  CB  VAL A   2     -16.103  34.948 -79.206  0.00  0.00    +0.027 C 
ATOM     34  CG2 VAL A   2     -15.921  33.737 -78.307  0.00  0.00    +0.002 C 
ATOM     35  CG1 VAL A   2     -15.430  36.174 -78.611  0.00  0.00    +0.002 C 
ENDBRANCH  21  33
ENDBRANCH  17  21
ENDBRANCH  16  19
ENDBRANCH  12  16
ENDBRANCH  11  13
BRANCH  11  36
ATOM     36  CB  ASP A   4     -18.889  35.569 -71.657  0.00  0.00    +0.143 C 
BRANCH  36  37
ATOM     37  CG  ASP A   4     -20.268  34.998 -71.310  0.00  0.00    +0.367 C 
ATOM     38  OD2 ASP A   4     -20.716  35.218 -70.158  0.00  0.00    -0.246 OA
ATOM     39  OD1 ASP A   4     -20.921  34.336 -72.170  0.00  0.00    -0.246 OA
ENDBRANCH  36  37
ENDBRANCH  11  36
ENDBRANCH   7  11
ENDBRANCH   6   9
ENDBRANCH   2   6
ENDBRANCH   1   4
BRANCH   1  40
ATOM     40  C   SER A   6     -15.147  30.818 -75.187  0.00  0.00    +0.243 C 
ATOM     41  N   PHE A   7     -15.152  32.134 -75.020  0.00  0.00    -0.297 N 
ATOM     42  H   PHE A   7     -16.062  32.636 -74.989  0.00  0.00    +0.150 HD
ATOM     43  O   SER A   6     -14.113  30.138 -75.241  0.00  0.00    -0.273 OA
BRANCH  41  44
ATOM     44  CA  PHE A   7     -13.924  32.892 -74.880  0.00  0.00    +0.153 C 
BRANCH  44  45
ATOM     45  C   PHE A   7     -13.026  32.304 -73.784  0.00  0.00    +0.241 C 
ATOM     46  N   GLN A   8     -13.625  31.805 -72.710  0.00  0.00    -0.297 N 
ATOM     47  H   GLN A   8     -14.663  31.750 -72.668  0.00  0.00    +0.150 HD
ATOM     48  O   PHE A   7     -11.801  32.286 -73.915  0.00  0.00    -0.273 OA
BRANCH  46  49
ATOM     49  CA  GLN A   8     -12.815  31.332 -71.584  0.00  0.00    +0.149 C 
BRANCH  49  50
ATOM     50  C   GLN A   8     -11.980  30.088 -71.902  0.00  0.00    +0.241 C 
ATOM     51  O   GLN A   8     -10.999  29.812 -71.207  0.00  0.00    -0.273 OA
ATOM     52  N   LEU A   9     -12.361  29.339 -72.940  0.00  0.00    -0.298 N 
ATOM     53  H   LEU A   9     -13.186  29.616 -73.510  0.00  0.00    +0.150 HD
BRANCH  52  54
ATOM     54  CA  LEU A   9     -11.613  28.127 -73.272  0.00  0.00    +0.137 C 
BRANCH  54  55
ATOM     55  C   LEU A   9     -10.244  28.425 -73.875  0.00  0.00    +0.227 C 
ATOM     56  O   LEU A   9      -9.292  27.666 -73.670  0.00  0.00    -0.286 OA
ENDBRANCH  54  55
BRANCH  54  57
ATOM     57  CB  LEU A   9     -12.398  27.210 -74.215  0.00  0.00    +0.028 C 
BRANCH  57  58
ATOM     58  CG  LEU A   9     -13.486  26.387 -73.551  0.00  0.00    +0.002 C 
ATOM     59  CD2 LEU A   9     -14.774  27.180 -73.538  0.00  0.00    +0.000 C 
ATOM     60  CD1 LEU A   9     -13.654  25.050 -74.266  0.00  0.00    +0.000 C 
ENDBRANCH  57  58
ENDBRANCH  54  57
ENDBRANCH  52  54
ENDBRANCH  49  50
BRANCH  49  61
ATOM     61  CB  GLN A   8     -13.674  31.102 -70.343  0.00  0.00    +0.039 C 
BRANCH  61  62
ATOM     62  CG  GLN A   8     -14.264  32.372 -69.784  0.00  0.00    +0.087 C 
BRANCH  62  63
ATOM     63  CD  GLN A   8     -14.813  32.202 -68.358  0.00  0.00    +0.219 C 
ATOM     64  OE1 GLN A   8     -14.606  31.174 -67.703  0.00  0.00    -0.275 OA
ATOM     65  NE2 GLN A   8     -15.539  33.210 -67.889  0.00  0.00    -0.329 N 
ATOM     66 HE21 GLN A   8     -15.957  33.152 -66.939  0.00  0.00    +0.145 HD
ATOM     67 HE22 GLN A   8     -15.690  34.058 -68.472  0.00  0.00    +0.145 HD
ENDBRANCH  62  63
ENDBRANCH  61  62
ENDBRANCH  49  61
ENDBRANCH  46  49
ENDBRANCH  44  45
BRANCH  44  68
ATOM     68  CB  PHE A   7     -14.258  34.356 -74.580  0.00  0.00    +0.055 C 
BRANCH  68  69
ATOM     69  CG  PHE A   7     -13.066  35.273 -74.616  0.00  0.00    -0.020 A 
ATOM     70  CD2 PHE A   7     -12.490  35.728 -73.443  0.00  0.00    -0.004 A 
ATOM     71  CE2 PHE A   7     -11.391  36.575 -73.467  0.00  0.00    -0.000 A 
ATOM     72  CZ  PHE A   7     -10.856  36.971 -74.676  0.00  0.00    -0.000 A 
ATOM     73  CE1 PHE A   7     -11.427  36.517 -75.862  0.00  0.00    -0.000 A 
ATOM     74  CD1 PHE A   7     -12.521  35.674 -75.825  0.00  0.00    -0.004 A 
ENDBRANCH  68  69
ENDBRANCH  44  68
ENDBRANCH  41  44
ENDBRANCH   1  40
BRANCH   1  75
ATOM     75  CB  SER A   6     -17.025  30.393 -76.766  0.00  0.00    +0.166 C 
BRANCH  75  76
ATOM     76  OG  SER A   6     -18.220  29.671 -77.011  0.00  0.00    -0.380 OA
ATOM     77  H   SER A   6     -18.922  29.974 -76.382  0.00  0.00    +0.211 HD
ENDBRANCH  75  76
ENDBRANCH   1  75
TORSDOF 33
REMARK  Name = ../refined-set-2016/2wva/2wva_pocket.pdb
REMARK  296 active torsions:
REMARK  status: ('A' for Active; 'I' for Inactive)
REMARK    1  A    between atoms: _1  and  _3
REMARK    2  A    between atoms: _3  and  _4
REMARK    3  A    between atoms: _3  and  _6
REMARK    4  A    between atoms: _6  and  _7
REMARK    5  A    between atoms: _10  and  _12
REMARK    6  A    between atoms: _12  and  _13
REMARK    7  A    between atoms: _12  and  _15
REMARK    8  A    between atoms: _15  and  _16
REMARK    9  A    between atoms: _22  and  _24
REMARK   10  A    between atoms: _24  and  _25
REMARK   11  A    between atoms: _24  and  _27
REMARK   12  A    between atoms: _27  and  _28
REMARK   13  A    between atoms: _31  and  _33
REMARK   14  A    between atoms: _33  and  _34
REMARK   15  A    between atoms: _33  and  _36
REMARK   16  A    between atoms: _36  and  _37
REMARK   17  A    between atoms: _42  and  _43
REMARK   18  A    between atoms: _45  and  _47
REMARK   19  A    between atoms: _47  and  _48
REMARK   20  A    between atoms: _47  and  _50
REMARK   21  A    between atoms: _50  and  _51
REMARK   22  A    between atoms: _56  and  _58
REMARK   23  A    between atoms: _58  and  _59
REMARK   24  A    between atoms: _58  and  _61
REMARK   25  A    between atoms: _61  and  _62
REMARK   26  A    between atoms: _62  and  _63
REMARK   27  A    between atoms: _66  and  _68
REMARK   28  A    between atoms: _68  and  _69
REMARK   29  A    between atoms: _68  and  _71
REMARK   30  A    between atoms: _71  and  _72
REMARK   31  A    between atoms: _75  and  _77
REMARK   32  A    between atoms: _77  and  _78
REMARK   33  A    between atoms: _80  and  _82
REMARK   34  A    between atoms: _82  and  _83
REMARK   35  A    between atoms: _82  and  _85
REMARK   36  A    between atoms: _85  and  _86
REMARK   37  A    between atoms: _89  and  _91
REMARK   38  A    between atoms: _91  and  _92
REMARK   39  A    between atoms: _91  and  _94
REMARK   40  A    between atoms: _94  and  _95
REMARK   41  A    between atoms: _97  and  _99
REMARK   42  A    between atoms: _99  and  _100
REMARK   43  A    between atoms: _99  and  _102
REMARK   44  A    between atoms: _102  and  _103
REMARK   45  A    between atoms: _113  and  _115
REMARK   46  A    between atoms: _115  and  _116
REMARK   47  A    between atoms: _115  and  _118
REMARK   48  A    between atoms: _118  and  _119
REMARK   49  A    between atoms: _125  and  _127
REMARK   50  A    between atoms: _127  and  _128
REMARK   51  A    between atoms: _127  and  _130
REMARK   52  A    between atoms: _130  and  _131
REMARK   53  A    between atoms: _136  and  _138
REMARK   54  A    between atoms: _138  and  _139
REMARK   55  A    between atoms: _138  and  _141
REMARK   56  A    between atoms: _141  and  _142
REMARK   57  A    between atoms: _142  and  _143
REMARK   58  A    between atoms: _146  and  _148
REMARK   59  A    between atoms: _148  and  _149
REMARK   60  A    between atoms: _148  and  _151
REMARK   61  A    between atoms: _151  and  _152
REMARK   62  A    between atoms: _162  and  _164
REMARK   63  A    between atoms: _164  and  _165
REMARK   64  A    between atoms: _167  and  _169
REMARK   65  A    between atoms: _169  and  _170
REMARK   66  A    between atoms: _169  and  _172
REMARK   67  A    between atoms: _172  and  _173
REMARK   68  A    between atoms: _178  and  _180
REMARK   69  A    between atoms: _180  and  _181
REMARK   70  A    between atoms: _180  and  _183
REMARK   71  A    between atoms: _183  and  _184
REMARK   72  A    between atoms: _187  and  _189
REMARK   73  A    between atoms: _189  and  _190
REMARK   74  A    between atoms: _192  and  _194
REMARK   75  A    between atoms: _194  and  _195
REMARK   76  A    between atoms: _194  and  _197
REMARK   77  A    between atoms: _197  and  _198
REMARK   78  A    between atoms: _208  and  _210
REMARK   79  A    between atoms: _210  and  _211
REMARK   80  A    between atoms: _210  and  _213
REMARK   81  A    between atoms: _213  and  _214
REMARK   82  A    between atoms: _216  and  _218
REMARK   83  A    between atoms: _218  and  _219
REMARK   84  A    between atoms: _218  and  _221
REMARK   85  A    between atoms: _221  and  _222
REMARK   86  A    between atoms: _222  and  _223
REMARK   87  A    between atoms: _225  and  _227
REMARK   88  A    between atoms: _227  and  _228
REMARK   89  A    between atoms: _227  and  _230
REMARK   90  A    between atoms: _233  and  _235
REMARK   91  A    between atoms: _235  and  _236
REMARK   92  A    between atoms: _238  and  _240
REMARK   93  A    between atoms: _240  and  _241
REMARK   94  A    between atoms: _240  and  _243
REMARK   95  A    between atoms: _243  and  _244
REMARK   96  A    between atoms: _247  and  _249
REMARK   97  A    between atoms: _249  and  _250
REMARK   98  A    between atoms: _252  and  _254
REMARK   99  A    between atoms: _254  and  _255
REMARK  100  A    between atoms: _254  and  _257
REMARK  101  A    between atoms: _257  and  _258
REMARK  102  A    between atoms: _260  and  _262
REMARK  103  A    between atoms: _262  and  _263
REMARK  104  A    between atoms: _262  and  _265
REMARK  105  A    between atoms: _265  and  _266
REMARK  106  A    between atoms: _272  and  _274
REMARK  107  A    between atoms: _274  and  _275
REMARK  108  A    between atoms: _274  and  _277
REMARK  109  A    between atoms: _277  and  _278
REMARK  110  A    between atoms: _278  and  _279
REMARK  111  A    between atoms: _284  and  _286
REMARK  112  A    between atoms: _286  and  _287
REMARK  113  A    between atoms: _286  and  _289
REMARK  114  A    between atoms: _289  and  _290
REMARK  115  A    between atoms: _293  and  _295
REMARK  116  A    between atoms: _295  and  _296
REMARK  117  A    between atoms: _295  and  _298
REMARK  118  A    between atoms: _298  and  _299
REMARK  119  A    between atoms: _302  and  _304
REMARK  120  A    between atoms: _304  and  _305
REMARK  121  A    between atoms: _304  and  _307
REMARK  122  A    between atoms: _307  and  _308
REMARK  123  A    between atoms: _311  and  _313
REMARK  124  A    between atoms: _313  and  _314
REMARK  125  A    between atoms: _313  and  _316
REMARK  126  A    between atoms: _316  and  _317
REMARK  127  A    between atoms: _322  and  _324
REMARK  128  A    between atoms: _324  and  _325
REMARK  129  A    between atoms: _324  and  _327
REMARK  130  A    between atoms: _327  and  _328
REMARK  131  A    between atoms: _333  and  _335
REMARK  132  A    between atoms: _335  and  _336
REMARK  133  A    between atoms: _335  and  _338
REMARK  134  A    between atoms: _338  and  _339
REMARK  135  A    between atoms: _344  and  _345
REMARK  136  A    between atoms: _347  and  _349
REMARK  137  A    between atoms: _349  and  _350
REMARK  138  A    between atoms: _352  and  _354
REMARK  139  A    between atoms: _354  and  _355
REMARK  140  A    between atoms: _354  and  _357
REMARK  141  A    between atoms: _357  and  _358
REMARK  142  A    between atoms: _363  and  _364
REMARK  143  A    between atoms: _366  and  _368
REMARK  144  A    between atoms: _368  and  _369
REMARK  145  A    between atoms: _368  and  _371
REMARK  146  A    between atoms: _371  and  _372
REMARK  147  A    between atoms: _375  and  _377
REMARK  148  A    between atoms: _377  and  _378
REMARK  149  A    between atoms: _377  and  _380
REMARK  150  A    between atoms: _380  and  _381
REMARK  151  A    between atoms: _384  and  _386
REMARK  152  A    between atoms: _386  and  _387
REMARK  153  A    between atoms: _386  and  _389
REMARK  154  A    between atoms: _389  and  _390
REMARK  155  A    between atoms: _390  and  _391
REMARK  156  A    between atoms: _394  and  _396
REMARK  157  A    between atoms: _396  and  _397
REMARK  158  A    between atoms: _396  and  _399
REMARK  159  A    between atoms: _402  and  _404
REMARK  160  A    between atoms: _404  and  _405
REMARK  161  A    between atoms: _404  and  _407
REMARK  162  A    between atoms: _407  and  _408
REMARK  163  A    between atoms: _408  and  _409
REMARK  164  A    between atoms: _411  and  _413
REMARK  165  A    between atoms: _413  and  _414
REMARK  166  A    between atoms: _413  and  _416
REMARK  167  A    between atoms: _416  and  _417
REMARK  168  A    between atoms: _420  and  _422
REMARK  169  A    between atoms: _422  and  _423
REMARK  170  A    between atoms: _422  and  _425
REMARK  171  A    between atoms: _425  and  _426
REMARK  172  A    between atoms: _431  and  _432
REMARK  173  A    between atoms: _434  and  _436
REMARK  174  A    between atoms: _436  and  _437
REMARK  175  A    between atoms: _436  and  _439
REMARK  176  A    between atoms: _439  and  _440
REMARK  177  A    between atoms: _445  and  _447
REMARK  178  A    between atoms: _447  and  _448
REMARK  179  A    between atoms: _447  and  _450
REMARK  180  A    between atoms: _450  and  _451
REMARK  181  A    between atoms: _454  and  _456
REMARK  182  A    between atoms: _456  and  _457
REMARK  183  A    between atoms: _456  and  _459
REMARK  184  A    between atoms: _459  and  _460
REMARK  185  A    between atoms: _465  and  _466
REMARK  186  A    between atoms: _468  and  _470
REMARK  187  A    between atoms: _470  and  _471
REMARK  188  A    between atoms: _470  and  _473
REMARK  189  A    between atoms: _473  and  _474
REMARK  190  A    between atoms: _477  and  _479
REMARK  191  A    between atoms: _479  and  _480
REMARK  192  A    between atoms: _482  and  _484
REMARK  193  A    between atoms: _484  and  _485
REMARK  194  A    between atoms: _484  and  _487
REMARK  195  A    between atoms: _487  and  _488
REMARK  196  A    between atoms: _488  and  _489
REMARK  197  A    between atoms: _489  and  _490
REMARK  198  A    between atoms: _499  and  _501
REMARK  199  A    between atoms: _501  and  _502
REMARK  200  A    between atoms: _501  and  _504
REMARK  201  A    between atoms: _504  and  _505
REMARK  202  A    between atoms: _508  and  _510
REMARK  203  A    between atoms: _510  and  _511
REMARK  204  A    between atoms: _510  and  _513
REMARK  205  A    between atoms: _515  and  _517
REMARK  206  A    between atoms: _517  and  _518
REMARK  207  A    between atoms: _517  and  _520
REMARK  208  A    between atoms: _520  and  _521
REMARK  209  A    between atoms: _524  and  _526
REMARK  210  A    between atoms: _526  and  _527
REMARK  211  A    between atoms: _526  and  _529
REMARK  212  A    between atoms: _529  and  _530
REMARK  213  A    between atoms: _533  and  _535
REMARK  214  A    between atoms: _535  and  _536
REMARK  215  A    between atoms: _535  and  _538
REMARK  216  A    between atoms: _541  and  _543
REMARK  217  A    between atoms: _543  and  _544
REMARK  218  A    between atoms: _547  and  _549
REMARK  219  A    between atoms: _549  and  _550
REMARK  220  A    between atoms: _552  and  _554
REMARK  221  A    between atoms: _554  and  _555
REMARK  222  A    between atoms: _554  and  _557
REMARK  223  A    between atoms: _557  and  _558
REMARK  224  A    between atoms: _561  and  _563
REMARK  225  A    between atoms: _563  and  _564
REMARK  226  A    between atoms: _563  and  _566
REMARK  227  A    between atoms: _566  and  _567
REMARK  228  A    between atoms: _572  and  _573
REMARK  229  A    between atoms: _575  and  _577
REMARK  230  A    between atoms: _577  and  _578
REMARK  231  A    between atoms: _577  and  _580
REMARK  232  A    between atoms: _580  and  _581
REMARK  233  A    between atoms: _586  and  _588
REMARK  234  A    between atoms: _588  and  _589
REMARK  235  A    between atoms: _588  and  _591
REMARK  236  A    between atoms: _591  and  _592
REMARK  237  A    between atoms: _595  and  _597
REMARK  238  A    between atoms: _597  and  _598
REMARK  239  A    between atoms: _597  and  _600
REMARK  240  A    between atoms: _602  and  _604
REMARK  241  A    between atoms: _604  and  _605
REMARK  242  A    between atoms: _604  and  _607
REMARK  243  A    between atoms: _609  and  _611
REMARK  244  A    between atoms: _611  and  _612
REMARK  245  A    between atoms: _611  and  _614
REMARK  246  A    between atoms: _614  and  _615
REMARK  247  A    between atoms: _620  and  _622
REMARK  248  A    between atoms: _622  and  _623
REMARK  249  A    between atoms: _622  and  _625
REMARK  250  A    between atoms: _625  and  _626
REMARK  251  A    between atoms: _626  and  _627
REMARK  252  A    between atoms: _630  and  _632
REMARK  253  A    between atoms: _632  and  _633
REMARK  254  A    between atoms: _632  and  _635
REMARK  255  A    between atoms: _635  and  _636
REMARK  256  A    between atoms: _639  and  _641
REMARK  257  A    between atoms: _641  and  _642
REMARK  258  A    between atoms: _641  and  _644
REMARK  259  A    between atoms: _647  and  _649
REMARK  260  A    between atoms: _649  and  _650
REMARK  261  A    between atoms: _649  and  _652
REMARK  262  A    between atoms: _652  and  _653
REMARK  263  A    between atoms: _656  and  _658
REMARK  264  A    between atoms: _658  and  _659
REMARK  265  A    between atoms: _658  and  _661
REMARK  266  A    between atoms: _661  and  _662
REMARK  267  A    between atoms: _667  and  _668
REMARK  268  A    between atoms: _670  and  _672
REMARK  269  A    between atoms: _672  and  _673
REMARK  270  A    between atoms: _672  and  _675
REMARK  271  A    between atoms: _675  and  _676
REMARK  272  A    between atoms: _678  and  _680
REMARK  273  A    between atoms: _680  and  _681
REMARK  274  A    between atoms: _680  and  _683
REMARK  275  A    between atoms: _686  and  _688
REMARK  276  A    between atoms: _688  and  _689
REMARK  277  A    between atoms: _691  and  _693
REMARK  278  A    between atoms: _693  and  _694
REMARK  279  A    between atoms: _697  and  _699
REMARK  280  A    between atoms: _699  and  _700
REMARK  281  A    between atoms: _699  and  _702
REMARK  282  A    between atoms: _702  and  _703
REMARK  283  A    between atoms: _706  and  _708
REMARK  284  A    between atoms: _708  and  _709
REMARK  285  A    between atoms: _708  and  _711
REMARK  286  A    between atoms: _711  and  _712
REMARK  287  A    between atoms: _714  and  _716
REMARK  288  A    between atoms: _716  and  _717
REMARK  289  A    between atoms: _720  and  _722
REMARK  290  A    between atoms: _722  and  _723
REMARK  291  A    between atoms: _722  and  _725
REMARK  292  A    between atoms: _725  and  _726
REMARK  293  A    between atoms: _731  and  _733
REMARK  294  A    between atoms: _733  and  _734
REMARK  295  A    between atoms: _733  and  _736
REMARK  296  A    between atoms: _736  and  _737
REMARK                            x       y       z     vdW  Elec       q    Type
REMARK                         _______ _______ _______ _____ _____    ______ ____
ROOT
ATOM      1  CA  TYR A   7     -23.867  29.421 -71.668  0.00  0.00    +0.153 C 
ENDROOT
BRANCH   1   3
ATOM      2  C   GLY A   6     -23.328  31.498 -70.441  0.00  0.00    +0.243 C 
ATOM      3  N   TYR A   7     -23.670  30.205 -70.450  0.00  0.00    -0.297 N 
ATOM      4  H   TYR A   7     -23.804  29.729 -69.535  0.00  0.00    +0.150 HD
ATOM      5  O   GLY A   6     -23.159  32.177 -71.478  0.00  0.00    -0.273 OA
BRANCH   2   6
ATOM      6  CA  GLY A   6     -23.141  32.106 -69.054  0.00  0.00    +0.176 C 
BRANCH   6   9
ATOM      7  C   TYR A   5     -23.423  34.300 -68.051  0.00  0.00    +0.241 C 
ATOM      8  O   TYR A   5     -24.223  33.862 -67.207  0.00  0.00    -0.273 OA
ATOM      9  N   GLY A   6     -22.888  33.539 -69.007  0.00  0.00    -0.295 N 
ATOM     10  H   GLY A   6     -22.281  33.976 -69.730  0.00  0.00    +0.150 HD
BRANCH   7  11
ATOM     11  CA  TYR A   5     -22.985  35.767 -68.023  0.00  0.00    +0.153 C 
BRANCH  11  13
ATOM     12  C   ASN A   4     -24.431  36.551 -69.834  0.00  0.00    +0.241 C 
ATOM     13  N   TYR A   5     -23.232  36.475 -69.263  0.00  0.00    -0.297 N 
ATOM     14  H   TYR A   5     -22.432  36.947 -69.730  0.00  0.00    +0.150 HD
ATOM     15  O   ASN A   4     -25.408  35.912 -69.457  0.00  0.00    -0.273 OA
BRANCH  12  16
ATOM     16  CA  ASN A   4     -24.517  37.466 -71.047  0.00  0.00    +0.158 C 
BRANCH  16  19
ATOM     17  C   ASN A   3     -22.570  38.858 -71.448  0.00  0.00    +0.241 C 
ATOM     18  O   ASN A   3     -23.118  39.853 -70.984  0.00  0.00    -0.273 OA
ATOM     19  N   ASN A   4     -23.182  37.688 -71.576  0.00  0.00    -0.297 N 
ATOM     20  H   ASN A   4     -22.695  36.911 -72.067  0.00  0.00    +0.150 HD
BRANCH  17  21
ATOM     21  CA  ASN A   3     -21.138  38.921 -71.954  0.00  0.00    +0.158 C 
BRANCH  21  23
ATOM     22  C   ILE A   2     -21.034  38.400 -74.319  0.00  0.00    +0.241 C 
ATOM     23  N   ASN A   3     -21.114  39.313 -73.360  0.00  0.00    -0.297 N 
ATOM     24  H   ASN A   3     -21.160  40.321 -73.613  0.00  0.00    +0.150 HD
ATOM     25  O   ILE A   2     -21.039  37.191 -74.078  0.00  0.00    -0.273 OA
BRANCH  22  26
ATOM     26  CA  ILE A   2     -20.934  38.917 -75.758  0.00  0.00    +0.148 C 
BRANCH  26  29
ATOM     27  C   LEU A   1     -18.682  39.764 -75.975  0.00  0.00    +0.238 C 
ATOM     28  O   LEU A   1     -18.963  40.762 -75.316  0.00  0.00    -0.274 OA
ATOM     29  N   ILE A   2     -19.566  38.812 -76.236  0.00  0.00    -0.297 N 
ATOM     30  H   ILE A   2     -19.277  37.980 -76.789  0.00  0.00    +0.150 HD
BRANCH  27  31
ATOM     31  CA  LEU A   1     -17.284  39.577 -76.546  0.00  0.00    +0.145 C 
BRANCH  31  32
ATOM     32  N   LEU A   1     -17.118  40.537 -77.623  0.00  0.00    -0.238 NA
ATOM     33  H   LEU A   1     -16.691  41.460 -77.405  0.00  0.00    +0.142 HD
ENDBRANCH  31  32
BRANCH  31  34
ATOM     34  CB  LEU A   1     -16.217  39.823 -75.466  0.00  0.00    +0.026 C 
BRANCH  34  35
ATOM     35  CG  LEU A   1     -16.012  38.852 -74.301  0.00  0.00    +0.002 C 
ATOM     36  CD2 LEU A   1     -17.226  38.807 -73.392  0.00  0.00    +0.000 C 
ATOM     37  CD1 LEU A   1     -15.647  37.464 -74.783  0.00  0.00    +0.000 C 
ENDBRANCH  34  35
ENDBRANCH  31  34
ENDBRANCH  27  31
ENDBRANCH  26  29
BRANCH  26  38
ATOM     38  CB  ILE A   2     -21.900  38.116 -76.649  0.00  0.00    +0.027 C 
ATOM     39  CG2 ILE A   2     -23.337  38.439 -76.304  0.00  0.00    +0.002 C 
BRANCH  38  40
ATOM     40  CG1 ILE A   2     -21.627  38.383 -78.130  0.00  0.00    +0.002 C 
ATOM     41  CD1 ILE A   2     -21.690  39.852 -78.541  0.00  0.00    +0.000 C 
ENDBRANCH  38  40
ENDBRANCH  26  38
ENDBRANCH  22  26
ENDBRANCH  21  23
BRANCH  21  42
ATOM     42  CB  ASN A   3     -20.305  39.886 -71.096  0.00  0.00    +0.114 C 
BRANCH  42  43
ATOM     43  CG  ASN A   3     -20.106  39.386 -69.672  0.00  0.00    +0.222 C 
ATOM     44  ND2 ASN A   3     -19.307  40.122 -68.893  0.00  0.00    -0.329 N 
ATOM     45 HD21 ASN A   3     -19.127  39.832 -67.911  0.00  0.00    +0.145 HD
ATOM     46 HD22 ASN A   3     -18.865  40.985 -69.269  0.00  0.00    +0.145 HD
ATOM     47  OD1 ASN A   3     -20.657  38.352 -69.277  0.00  0.00    -0.275 OA
ENDBRANCH  42  43
ENDBRANCH  21  42
ENDBRANCH  17  21
ENDBRANCH  16  19
BRANCH  16  48
ATOM     48  CB  ASN A   4     -25.425  36.853 -72.106  0.00  0.00    +0.114 C 
BRANCH  48  49
ATOM     49  CG  ASN A   4     -24.841  35.588 -72.709  0.00  0.00    +0.222 C 
ATOM     50  OD1 ASN A   4     -23.824  35.056 -72.235  0.00  0.00    -0.275 OA
ATOM     51  ND2 ASN A   4     -25.474  35.103 -73.780  0.00  0.00    -0.329 N 
ATOM     52 HD21 ASN A   4     -26.323  35.581 -74.143  0.00  0.00    +0.145 HD
ATOM     53 HD22 ASN A   4     -25.118  34.247 -74.251  0.00  0.00    +0.145 HD
ENDBRANCH  48  49
ENDBRANCH  16  48
ENDBRANCH  12  16
ENDBRANCH  11  13
BRANCH  11  54
ATOM     54  CB  TYR A   5     -23.638  36.520 -66.855  0.00  0.00    +0.055 C 
BRANCH  54  55
ATOM     55  CG  TYR A   5     -23.228  36.039 -65.474  0.00  0.00    -0.020 A 
ATOM     56  CD2 TYR A   5     -24.145  36.023 -64.424  0.00  0.00    -0.001 A 
ATOM     57  CE2 TYR A   5     -23.773  35.596 -63.143  0.00  0.00    +0.036 A 
ATOM     58  CZ  TYR A   5     -22.474  35.183 -62.917  0.00  0.00    +0.134 A 
ATOM     59  CE1 TYR A   5     -21.546  35.198 -63.950  0.00  0.00    +0.036 A 
ATOM     60  CD1 TYR A   5     -21.926  35.631 -65.213  0.00  0.00    -0.001 A 
BRANCH  58  61
ATOM     61  OH  TYR A   5     -22.099  34.752 -61.670  0.00  0.00    -0.506 OA
ATOM     62  HH  TYR A   5     -21.143  34.496 -61.684  0.00  0.00    +0.292 HD
ENDBRANCH  58  61
ENDBRANCH  54  55
ENDBRANCH  11  54
ENDBRANCH   7  11
ENDBRANCH   6   9
ENDBRANCH   2   6
ENDBRANCH   1   3
BRANCH   1  63
ATOM     63  C   TYR A   7     -25.307  29.510 -72.197  0.00  0.00    +0.241 C 
ATOM     64  O   TYR A   7     -26.080  28.561 -72.033  0.00  0.00    -0.273 OA
ATOM     65  N   THR A   8     -25.672  30.611 -72.851  0.00  0.00    -0.295 N 
ATOM     66  H   THR A   8     -24.962  31.335 -73.081  0.00  0.00    +0.150 HD
BRANCH  65  67
ATOM     67  CA  THR A   8     -27.068  30.808 -73.249  0.00  0.00    +0.176 C 
BRANCH  67  68
ATOM     68  C   THR A   8     -27.610  29.753 -74.238  0.00  0.00    +0.243 C 
ATOM     69  O   THR A   8     -28.754  29.303 -74.091  0.00  0.00    -0.273 OA
ATOM     70  N   ILE A   9     -26.799  29.325 -75.192  0.00  0.00    -0.297 N 
ATOM     71  H   ILE A   9     -25.834  29.707 -75.254  0.00  0.00    +0.150 HD
BRANCH  70  72
ATOM     72  CA  ILE A   9     -27.236  28.332 -76.151  0.00  0.00    +0.149 C 
BRANCH  72  73
ATOM     73  C   ILE A   9     -27.574  27.034 -75.446  0.00  0.00    +0.241 C 
ATOM     74  N   GLU A  10     -26.760  26.677 -74.479  0.00  0.00    -0.297 N 
ATOM     75  H   GLU A  10     -25.922  27.266 -74.300  0.00  0.00    +0.150 HD
ATOM     76  O   ILE A   9     -28.533  26.392 -75.765  0.00  0.00    -0.273 OA
BRANCH  74  77
ATOM     77  CA  GLU A  10     -26.964  25.512 -73.650  0.00  0.00    +0.149 C 
BRANCH  77  78
ATOM     78  C   GLU A  10     -28.235  25.637 -72.816  0.00  0.00    +0.241 C 
ATOM     79  N   VAL A  11     -28.481  26.829 -72.321  0.00  0.00    -0.297 N 
ATOM     80  H   VAL A  11     -27.804  27.591 -72.525  0.00  0.00    +0.150 HD
ATOM     81  O   GLU A  10     -28.955  24.698 -72.639  0.00  0.00    -0.273 OA
BRANCH  79  82
ATOM     82  CA  VAL A  11     -29.635  27.146 -71.510  0.00  0.00    +0.149 C 
BRANCH  82  83
ATOM     83  C   VAL A  11     -30.905  26.924 -72.295  0.00  0.00    +0.241 C 
ATOM     84  O   VAL A  11     -31.908  26.492 -71.771  0.00  0.00    -0.273 OA
ATOM     85  N   MET A  12     -30.834  27.251 -73.567  0.00  0.00    -0.297 N 
ATOM     86  H   MET A  12     -29.931  27.603 -73.943  0.00  0.00    +0.150 HD
BRANCH  85  87
ATOM     87  CA  MET A  12     -31.976  27.138 -74.472  0.00  0.00    +0.149 C 
BRANCH  87  88
ATOM     88  C   MET A  12     -32.150  25.719 -75.036  0.00  0.00    +0.241 C 
ATOM     89  N   ILE A  13     -31.192  24.845 -74.735  0.00  0.00    -0.298 N 
ATOM     90  H   ILE A  13     -30.346  25.181 -74.232  0.00  0.00    +0.150 HD
ATOM     91  O   MET A  12     -33.131  25.425 -75.725  0.00  0.00    -0.273 OA
BRANCH  89  92
ATOM     92  CA  ILE A  13     -31.288  23.427 -75.088  0.00  0.00    +0.137 C 
BRANCH  92  93
ATOM     93  CB  ILE A  13     -29.918  22.853 -75.571  0.00  0.00    +0.026 C 
ATOM     94  CG2 ILE A  13     -29.950  21.324 -75.653  0.00  0.00    +0.002 C 
BRANCH  93  95
ATOM     95  CG1 ILE A  13     -29.534  23.465 -76.924  0.00  0.00    +0.002 C 
ATOM     96  CD1 ILE A  13     -28.201  22.988 -77.455  0.00  0.00    +0.000 C 
ENDBRANCH  93  95
ENDBRANCH  92  93
BRANCH  92  97
ATOM     97  C   ILE A  13     -31.810  22.671 -73.864  0.00  0.00    +0.227 C 
ATOM     98  O   ILE A  13     -32.869  22.029 -73.913  0.00  0.00    -0.286 OA
ENDBRANCH  92  97
ENDBRANCH  89  92
ENDBRANCH  87  88
BRANCH  87  99
ATOM     99  CB  MET A  12     -31.865  28.166 -75.607  0.00  0.00    +0.041 C 
BRANCH  99 100
ATOM    100  CG  MET A  12     -31.819  29.618 -75.125  0.00  0.00    +0.060 C 
BRANCH 100 101
ATOM    101  SD  MET A  12     -33.169  30.048 -73.964  0.00  0.00    -0.139 S 
ATOM    102  CE  MET A  12     -32.502  31.553 -73.215  0.00  0.00    +0.069 C 
ENDBRANCH 100 101
ENDBRANCH  99 100
ENDBRANCH  87  99
ENDBRANCH  85  87
ENDBRANCH  82  83
BRANCH  82 103
ATOM    103  CB  VAL A  11     -29.599  28.607 -71.096  0.00  0.00    +0.027 C 
ATOM    104  CG2 VAL A  11     -28.599  28.823 -70.051  0.00  0.00    +0.002 C 
ATOM    105  CG1 VAL A  11     -30.915  29.058 -70.644  0.00  0.00    +0.002 C 
ENDBRANCH  82 103
ENDBRANCH  79  82
ENDBRANCH  77  78
BRANCH  77 106
ATOM    106  CB  GLU A  10     -25.736  25.260 -72.795  0.00  0.00    +0.041 C 
BRANCH 106 107
ATOM    107  CG  GLU A  10     -25.332  23.811 -72.730  0.00  0.00    +0.116 C 
BRANCH 107 108
ATOM    108  CD  GLU A  10     -24.614  23.333 -73.957  0.00  0.00    +0.365 C 
ATOM    109  OE2 GLU A  10     -23.629  22.615 -73.816  0.00  0.00    -0.246 OA
ATOM    110  OE1 GLU A  10     -25.029  23.620 -75.066  0.00  0.00    -0.246 OA
ENDBRANCH 107 108
ENDBRANCH 106 107
ENDBRANCH  77 106
ENDBRANCH  74  77
ENDBRANCH  72  73
BRANCH  72 111
ATOM    111  CB  ILE A   9     -26.191  28.112 -77.246  0.00  0.00    +0.027 C 
ATOM    112  CG2 ILE A   9     -24.840  28.078 -76.661  0.00  0.00    +0.002 C 
BRANCH 111 113
ATOM    113  CG1 ILE A   9     -26.450  26.819 -77.999  0.00  0.00    +0.002 C 
ATOM    114  CD1 ILE A   9     -25.860  26.761 -79.382  0.00  0.00    +0.000 C 
ENDBRANCH 111 113
ENDBRANCH  72 111
ENDBRANCH  70  72
ENDBRANCH  67  68
BRANCH  67 115
ATOM    115  CB  THR A   8     -27.333  32.251 -73.763  0.00  0.00    +0.137 C 
ATOM    116  CG2 THR A   8     -28.701  32.340 -74.463  0.00  0.00    +0.034 C 
BRANCH 115 117
ATOM    117  OG1 THR A   8     -27.310  33.168 -72.656  0.00  0.00    -0.382 OA
ATOM    118  HG1 THR A   8     -26.423  33.132 -72.217  0.00  0.00    +0.210 HD
ENDBRANCH 115 117
ENDBRANCH  67 115
ENDBRANCH  65  67
ENDBRANCH   1  63
BRANCH   1 119
ATOM    119  CB  TYR A   7     -23.573  27.941 -71.401  0.00  0.00    +0.055 C 
BRANCH 119 120
ATOM    120  CG  TYR A   7     -22.179  27.597 -70.922  0.00  0.00    -0.020 A 
ATOM    121  CD2 TYR A   7     -21.960  26.456 -70.159  0.00  0.00    -0.001 A 
ATOM    122  CE2 TYR A   7     -20.706  26.111 -69.733  0.00  0.00    +0.036 A 
ATOM    123  CZ  TYR A   7     -19.634  26.900 -70.074  0.00  0.00    +0.134 A 
ATOM    124  CE1 TYR A   7     -19.821  28.034 -70.838  0.00  0.00    +0.036 A 
ATOM    125  CD1 TYR A   7     -21.089  28.372 -71.263  0.00  0.00    -0.001 A 
BRANCH 123 126
ATOM    126  OH  TYR A   7     -18.367  26.551 -69.641  0.00  0.00    -0.506 OA
ATOM    127  HH  TYR A   7     -18.351  26.531 -68.651  0.00  0.00    +0.292 HD
ENDBRANCH 123 126
ENDBRANCH 119 120
ENDBRANCH   1 119
TORSDOF 53
REMARK  Name = ../refined-set-2016/2wva/2wva_pocket.pdb
REMARK  296 active torsions:
REMARK  status: ('A' for Active; 'I' for Inactive)
REMARK    1  A    between atoms: _1  and  _3
REMARK    2  A    between atoms: _3  and  _4
REMARK    3  A    between atoms: _3  and  _6
REMARK    4  A    between atoms: _6  and  _7
REMARK    5  A    between atoms: _10  and  _12
REMARK    6  A    between atoms: _12  and  _13
REMARK    7  A    between atoms: _12  and  _15
REMARK    8  A    between atoms: _15  and  _16
REMARK    9  A    between atoms: _22  and  _24
REMARK   10  A    between atoms: _24  and  _25
REMARK   11  A    between atoms: _24  and  _27
REMARK   12  A    between atoms: _27  and  _28
REMARK   13  A    between atoms: _31  and  _33
REMARK   14  A    between atoms: _33  and  _34
REMARK   15  A    between atoms: _33  and  _36
REMARK   16  A    between atoms: _36  and  _37
REMARK   17  A    between atoms: _42  and  _43
REMARK   18  A    between atoms: _45  and  _47
REMARK   19  A    between atoms: _47  and  _48
REMARK   20  A    between atoms: _47  and  _50
REMARK   21  A    between atoms: _50  and  _51
REMARK   22  A    between atoms: _56  and  _58
REMARK   23  A    between atoms: _58  and  _59
REMARK   24  A    between atoms: _58  and  _61
REMARK   25  A    between atoms: _61  and  _62
REMARK   26  A    between atoms: _62  and  _63
REMARK   27  A    between atoms: _66  and  _68
REMARK   28  A    between atoms: _68  and  _69
REMARK   29  A    between atoms: _68  and  _71
REMARK   30  A    between atoms: _71  and  _72
REMARK   31  A    between atoms: _75  and  _77
REMARK   32  A    between atoms: _77  and  _78
REMARK   33  A    between atoms: _80  and  _82
REMARK   34  A    between atoms: _82  and  _83
REMARK   35  A    between atoms: _82  and  _85
REMARK   36  A    between atoms: _85  and  _86
REMARK   37  A    between atoms: _89  and  _91
REMARK   38  A    between atoms: _91  and  _92
REMARK   39  A    between atoms: _91  and  _94
REMARK   40  A    between atoms: _94  and  _95
REMARK   41  A    between atoms: _97  and  _99
REMARK   42  A    between atoms: _99  and  _100
REMARK   43  A    between atoms: _99  and  _102
REMARK   44  A    between atoms: _102  and  _103
REMARK   45  A    between atoms: _113  and  _115
REMARK   46  A    between atoms: _115  and  _116
REMARK   47  A    between atoms: _115  and  _118
REMARK   48  A    between atoms: _118  and  _119
REMARK   49  A    between atoms: _125  and  _127
REMARK   50  A    between atoms: _127  and  _128
REMARK   51  A    between atoms: _127  and  _130
REMARK   52  A    between atoms: _130  and  _131
REMARK   53  A    between atoms: _136  and  _138
REMARK   54  A    between atoms: _138  and  _139
REMARK   55  A    between atoms: _138  and  _141
REMARK   56  A    between atoms: _141  and  _142
REMARK   57  A    between atoms: _142  and  _143
REMARK   58  A    between atoms: _146  and  _148
REMARK   59  A    between atoms: _148  and  _149
REMARK   60  A    between atoms: _148  and  _151
REMARK   61  A    between atoms: _151  and  _152
REMARK   62  A    between atoms: _162  and  _164
REMARK   63  A    between atoms: _164  and  _165
REMARK   64  A    between atoms: _167  and  _169
REMARK   65  A    between atoms: _169  and  _170
REMARK   66  A    between atoms: _169  and  _172
REMARK   67  A    between atoms: _172  and  _173
REMARK   68  A    between atoms: _178  and  _180
REMARK   69  A    between atoms: _180  and  _181
REMARK   70  A    between atoms: _180  and  _183
REMARK   71  A    between atoms: _183  and  _184
REMARK   72  A    between atoms: _187  and  _189
REMARK   73  A    between atoms: _189  and  _190
REMARK   74  A    between atoms: _192  and  _194
REMARK   75  A    between atoms: _194  and  _195
REMARK   76  A    between atoms: _194  and  _197
REMARK   77  A    between atoms: _197  and  _198
REMARK   78  A    between atoms: _208  and  _210
REMARK   79  A    between atoms: _210  and  _211
REMARK   80  A    between atoms: _210  and  _213
REMARK   81  A    between atoms: _213  and  _214
REMARK   82  A    between atoms: _216  and  _218
REMARK   83  A    between atoms: _218  and  _219
REMARK   84  A    between atoms: _218  and  _221
REMARK   85  A    between atoms: _221  and  _222
REMARK   86  A    between atoms: _222  and  _223
REMARK   87  A    between atoms: _225  and  _227
REMARK   88  A    between atoms: _227  and  _228
REMARK   89  A    between atoms: _227  and  _230
REMARK   90  A    between atoms: _233  and  _235
REMARK   91  A    between atoms: _235  and  _236
REMARK   92  A    between atoms: _238  and  _240
REMARK   93  A    between atoms: _240  and  _241
REMARK   94  A    between atoms: _240  and  _243
REMARK   95  A    between atoms: _243  and  _244
REMARK   96  A    between atoms: _247  and  _249
REMARK   97  A    between atoms: _249  and  _250
REMARK   98  A    between atoms: _252  and  _254
REMARK   99  A    between atoms: _254  and  _255
REMARK  100  A    between atoms: _254  and  _257
REMARK  101  A    between atoms: _257  and  _258
REMARK  102  A    between atoms: _260  and  _262
REMARK  103  A    between atoms: _262  and  _263
REMARK  104  A    between atoms: _262  and  _265
REMARK  105  A    between atoms: _265  and  _266
REMARK  106  A    between atoms: _272  and  _274
REMARK  107  A    between atoms: _274  and  _275
REMARK  108  A    between atoms: _274  and  _277
REMARK  109  A    between atoms: _277  and  _278
REMARK  110  A    between atoms: _278  and  _279
REMARK  111  A    between atoms: _284  and  _286
REMARK  112  A    between atoms: _286  and  _287
REMARK  113  A    between atoms: _286  and  _289
REMARK  114  A    between atoms: _289  and  _290
REMARK  115  A    between atoms: _293  and  _295
REMARK  116  A    between atoms: _295  and  _296
REMARK  117  A    between atoms: _295  and  _298
REMARK  118  A    between atoms: _298  and  _299
REMARK  119  A    between atoms: _302  and  _304
REMARK  120  A    between atoms: _304  and  _305
REMARK  121  A    between atoms: _304  and  _307
REMARK  122  A    between atoms: _307  and  _308
REMARK  123  A    between atoms: _311  and  _313
REMARK  124  A    between atoms: _313  and  _314
REMARK  125  A    between atoms: _313  and  _316
REMARK  126  A    between atoms: _316  and  _317
REMARK  127  A    between atoms: _322  and  _324
REMARK  128  A    between atoms: _324  and  _325
REMARK  129  A    between atoms: _324  and  _327
REMARK  130  A    between atoms: _327  and  _328
REMARK  131  A    between atoms: _333  and  _335
REMARK  132  A    between atoms: _335  and  _336
REMARK  133  A    between atoms: _335  and  _338
REMARK  134  A    between atoms: _338  and  _339
REMARK  135  A    between atoms: _344  and  _345
REMARK  136  A    between atoms: _347  and  _349
REMARK  137  A    between atoms: _349  and  _350
REMARK  138  A    between atoms: _352  and  _354
REMARK  139  A    between atoms: _354  and  _355
REMARK  140  A    between atoms: _354  and  _357
REMARK  141  A    between atoms: _357  and  _358
REMARK  142  A    between atoms: _363  and  _364
REMARK  143  A    between atoms: _366  and  _368
REMARK  144  A    between atoms: _368  and  _369
REMARK  145  A    between atoms: _368  and  _371
REMARK  146  A    between atoms: _371  and  _372
REMARK  147  A    between atoms: _375  and  _377
REMARK  148  A    between atoms: _377  and  _378
REMARK  149  A    between atoms: _377  and  _380
REMARK  150  A    between atoms: _380  and  _381
REMARK  151  A    between atoms: _384  and  _386
REMARK  152  A    between atoms: _386  and  _387
REMARK  153  A    between atoms: _386  and  _389
REMARK  154  A    between atoms: _389  and  _390
REMARK  155  A    between atoms: _390  and  _391
REMARK  156  A    between atoms: _394  and  _396
REMARK  157  A    between atoms: _396  and  _397
REMARK  158  A    between atoms: _396  and  _399
REMARK  159  A    between atoms: _402  and  _404
REMARK  160  A    between atoms: _404  and  _405
REMARK  161  A    between atoms: _404  and  _407
REMARK  162  A    between atoms: _407  and  _408
REMARK  163  A    between atoms: _408  and  _409
REMARK  164  A    between atoms: _411  and  _413
REMARK  165  A    between atoms: _413  and  _414
REMARK  166  A    between atoms: _413  and  _416
REMARK  167  A    between atoms: _416  and  _417
REMARK  168  A    between atoms: _420  and  _422
REMARK  169  A    between atoms: _422  and  _423
REMARK  170  A    between atoms: _422  and  _425
REMARK  171  A    between atoms: _425  and  _426
REMARK  172  A    between atoms: _431  and  _432
REMARK  173  A    between atoms: _434  and  _436
REMARK  174  A    between atoms: _436  and  _437
REMARK  175  A    between atoms: _436  and  _439
REMARK  176  A    between atoms: _439  and  _440
REMARK  177  A    between atoms: _445  and  _447
REMARK  178  A    between atoms: _447  and  _448
REMARK  179  A    between atoms: _447  and  _450
REMARK  180  A    between atoms: _450  and  _451
REMARK  181  A    between atoms: _454  and  _456
REMARK  182  A    between atoms: _456  and  _457
REMARK  183  A    between atoms: _456  and  _459
REMARK  184  A    between atoms: _459  and  _460
REMARK  185  A    between atoms: _465  and  _466
REMARK  186  A    between atoms: _468  and  _470
REMARK  187  A    between atoms: _470  and  _471
REMARK  188  A    between atoms: _470  and  _473
REMARK  189  A    between atoms: _473  and  _474
REMARK  190  A    between atoms: _477  and  _479
REMARK  191  A    between atoms: _479  and  _480
REMARK  192  A    between atoms: _482  and  _484
REMARK  193  A    between atoms: _484  and  _485
REMARK  194  A    between atoms: _484  and  _487
REMARK  195  A    between atoms: _487  and  _488
REMARK  196  A    between atoms: _488  and  _489
REMARK  197  A    between atoms: _489  and  _490
REMARK  198  A    between atoms: _499  and  _501
REMARK  199  A    between atoms: _501  and  _502
REMARK  200  A    between atoms: _501  and  _504
REMARK  201  A    between atoms: _504  and  _505
REMARK  202  A    between atoms: _508  and  _510
REMARK  203  A    between atoms: _510  and  _511
REMARK  204  A    between atoms: _510  and  _513
REMARK  205  A    between atoms: _515  and  _517
REMARK  206  A    between atoms: _517  and  _518
REMARK  207  A    between atoms: _517  and  _520
REMARK  208  A    between atoms: _520  and  _521
REMARK  209  A    between atoms: _524  and  _526
REMARK  210  A    between atoms: _526  and  _527
REMARK  211  A    between atoms: _526  and  _529
REMARK  212  A    between atoms: _529  and  _530
REMARK  213  A    between atoms: _533  and  _535
REMARK  214  A    between atoms: _535  and  _536
REMARK  215  A    between atoms: _535  and  _538
REMARK  216  A    between atoms: _541  and  _543
REMARK  217  A    between atoms: _543  and  _544
REMARK  218  A    between atoms: _547  and  _549
REMARK  219  A    between atoms: _549  and  _550
REMARK  220  A    between atoms: _552  and  _554
REMARK  221  A    between atoms: _554  and  _555
REMARK  222  A    between atoms: _554  and  _557
REMARK  223  A    between atoms: _557  and  _558
REMARK  224  A    between atoms: _561  and  _563
REMARK  225  A    between atoms: _563  and  _564
REMARK  226  A    between atoms: _563  and  _566
REMARK  227  A    between atoms: _566  and  _567
REMARK  228  A    between atoms: _572  and  _573
REMARK  229  A    between atoms: _575  and  _577
REMARK  230  A    between atoms: _577  and  _578
REMARK  231  A    between atoms: _577  and  _580
REMARK  232  A    between atoms: _580  and  _581
REMARK  233  A    between atoms: _586  and  _588
REMARK  234  A    between atoms: _588  and  _589
REMARK  235  A    between atoms: _588  and  _591
REMARK  236  A    between atoms: _591  and  _592
REMARK  237  A    between atoms: _595  and  _597
REMARK  238  A    between atoms: _597  and  _598
REMARK  239  A    between atoms: _597  and  _600
REMARK  240  A    between atoms: _602  and  _604
REMARK  241  A    between atoms: _604  and  _605
REMARK  242  A    between atoms: _604  and  _607
REMARK  243  A    between atoms: _609  and  _611
REMARK  244  A    between atoms: _611  and  _612
REMARK  245  A    between atoms: _611  and  _614
REMARK  246  A    between atoms: _614  and  _615
REMARK  247  A    between atoms: _620  and  _622
REMARK  248  A    between atoms: _622  and  _623
REMARK  249  A    between atoms: _622  and  _625
REMARK  250  A    between atoms: _625  and  _626
REMARK  251  A    between atoms: _626  and  _627
REMARK  252  A    between atoms: _630  and  _632
REMARK  253  A    between atoms: _632  and  _633
REMARK  254  A    between atoms: _632  and  _635
REMARK  255  A    between atoms: _635  and  _636
REMARK  256  A    between atoms: _639  and  _641
REMARK  257  A    between atoms: _641  and  _642
REMARK  258  A    between atoms: _641  and  _644
REMARK  259  A    between atoms: _647  and  _649
REMARK  260  A    between atoms: _649  and  _650
REMARK  261  A    between atoms: _649  and  _652
REMARK  262  A    between atoms: _652  and  _653
REMARK  263  A    between atoms: _656  and  _658
REMARK  264  A    between atoms: _658  and  _659
REMARK  265  A    between atoms: _658  and  _661
REMARK  266  A    between atoms: _661  and  _662
REMARK  267  A    between atoms: _667  and  _668
REMARK  268  A    between atoms: _670  and  _672
REMARK  269  A    between atoms: _672  and  _673
REMARK  270  A    between atoms: _672  and  _675
REMARK  271  A    between atoms: _675  and  _676
REMARK  272  A    between atoms: _678  and  _680
REMARK  273  A    between atoms: _680  and  _681
REMARK  274  A    between atoms: _680  and  _683
REMARK  275  A    between atoms: _686  and  _688
REMARK  276  A    between atoms: _688  and  _689
REMARK  277  A    between atoms: _691  and  _693
REMARK  278  A    between atoms: _693  and  _694
REMARK  279  A    between atoms: _697  and  _699
REMARK  280  A    between atoms: _699  and  _700
REMARK  281  A    between atoms: _699  and  _702
REMARK  282  A    between atoms: _702  and  _703
REMARK  283  A    between atoms: _706  and  _708
REMARK  284  A    between atoms: _708  and  _709
REMARK  285  A    between atoms: _708  and  _711
REMARK  286  A    between atoms: _711  and  _712
REMARK  287  A    between atoms: _714  and  _716
REMARK  288  A    between atoms: _716  and  _717
REMARK  289  A    between atoms: _720  and  _722
REMARK  290  A    between atoms: _722  and  _723
REMARK  291  A    between atoms: _722  and  _725
REMARK  292  A    between atoms: _725  and  _726
REMARK  293  A    between atoms: _731  and  _733
REMARK  294  A    between atoms: _733  and  _734
REMARK  295  A    between atoms: _733  and  _736
REMARK  296  A    between atoms: _736  and  _737
REMARK                            x       y       z     vdW  Elec       q    Type
REMARK                         _______ _______ _______ _____ _____    ______ ____
ROOT
ATOM      1  C   TYR A   1     -23.511  24.722 -66.331  0.00  0.00    +0.239 C 
ATOM      2  N   ASN A   2     -24.555  25.528 -66.478  0.00  0.00    -0.298 N 
ATOM      3  H   ASN A   2     -25.375  25.421 -65.847  0.00  0.00    +0.150 HD
ATOM      4  O   TYR A   1     -22.516  24.791 -67.047  0.00  0.00    -0.274 OA
ENDROOT
BRANCH   1   5
ATOM      5  CA  TYR A   1     -23.596  23.683 -65.216  0.00  0.00    +0.149 C 
BRANCH   5   6
ATOM      6  N   TYR A   1     -24.796  23.825 -64.401  0.00  0.00    -0.238 NA
ATOM      7  H   TYR A   1     -25.547  23.111 -64.491  0.00  0.00    +0.142 HD
ENDBRANCH   5   6
BRANCH   5   8
ATOM      8  CB  TYR A   1     -23.540  22.279 -65.816  0.00  0.00    +0.053 C 
BRANCH   8   9
ATOM      9  CG  TYR A   1     -24.908  21.743 -66.164  0.00  0.00    -0.020 A 
ATOM     10  CD2 TYR A   1     -25.511  20.761 -65.388  0.00  0.00    -0.001 A 
ATOM     11  CE2 TYR A   1     -26.767  20.275 -65.705  0.00  0.00    +0.036 A 
ATOM     12  CZ  TYR A   1     -27.431  20.781 -66.802  0.00  0.00    +0.134 A 
ATOM     13  CE1 TYR A   1     -26.859  21.756 -67.580  0.00  0.00    +0.036 A 
ATOM     14  CD1 TYR A   1     -25.607  22.231 -67.264  0.00  0.00    -0.001 A 
BRANCH  12  15
ATOM     15  OH  TYR A   1     -28.673  20.312 -67.131  0.00  0.00    -0.506 OA
ATOM     16  HH  TYR A   1     -29.296  20.475 -66.379  0.00  0.00    +0.292 HD
ENDBRANCH  12  15
ENDBRANCH   8   9
ENDBRANCH   5   8
ENDBRANCH   1   5
BRANCH   2  17
ATOM     17  CA  ASN A   2     -24.575  26.562 -67.509  0.00  0.00    +0.146 C 
BRANCH  17  18
ATOM     18  C   ASN A   2     -24.054  27.901 -66.995  0.00  0.00    +0.227 C 
ATOM     19  O   ASN A   2     -23.917  28.864 -67.765  0.00  0.00    -0.286 OA
ENDBRANCH  17  18
BRANCH  17  20
ATOM     20  CB  ASN A   2     -25.987  26.733 -68.091  0.00  0.00    +0.112 C 
BRANCH  20  21
ATOM     21  CG  ASN A   2     -26.396  25.583 -68.999  0.00  0.00    +0.222 C 
ATOM     22  ND2 ASN A   2     -27.700  25.403 -69.161  0.00  0.00    -0.329 N 
ATOM     23 HD21 ASN A   2     -28.375  26.028 -68.677  0.00  0.00    +0.145 HD
ATOM     24 HD22 ASN A   2     -28.047  24.637 -69.772  0.00  0.00    +0.145 HD
ATOM     25  OD1 ASN A   2     -25.553  24.870 -69.550  0.00  0.00    -0.275 OA
ENDBRANCH  20  21
ENDBRANCH  17  20
ENDBRANCH   2  17
TORSDOF 9
REMARK  Name = ../refined-set-2016/2wva/2wva_pocket.pdb
REMARK  296 active torsions:
REMARK  status: ('A' for Active; 'I' for Inactive)
REMARK    1  A    between atoms: _1  and  _3
REMARK    2  A    between atoms: _3  and  _4
REMARK    3  A    between atoms: _3  and  _6
REMARK    4  A    between atoms: _6  and  _7
REMARK    5  A    between atoms: _10  and  _12
REMARK    6  A    between atoms: _12  and  _13
REMARK    7  A    between atoms: _12  and  _15
REMARK    8  A    between atoms: _15  and  _16
REMARK    9  A    between atoms: _22  and  _24
REMARK   10  A    between atoms: _24  and  _25
REMARK   11  A    between atoms: _24  and  _27
REMARK   12  A    between atoms: _27  and  _28
REMARK   13  A    between atoms: _31  and  _33
REMARK   14  A    between atoms: _33  and  _34
REMARK   15  A    between atoms: _33  and  _36
REMARK   16  A    between atoms: _36  and  _37
REMARK   17  A    between atoms: _42  and  _43
REMARK   18  A    between atoms: _45  and  _47
REMARK   19  A    between atoms: _47  and  _48
REMARK   20  A    between atoms: _47  and  _50
REMARK   21  A    between atoms: _50  and  _51
REMARK   22  A    between atoms: _56  and  _58
REMARK   23  A    between atoms: _58  and  _59
REMARK   24  A    between atoms: _58  and  _61
REMARK   25  A    between atoms: _61  and  _62
REMARK   26  A    between atoms: _62  and  _63
REMARK   27  A    between atoms: _66  and  _68
REMARK   28  A    between atoms: _68  and  _69
REMARK   29  A    between atoms: _68  and  _71
REMARK   30  A    between atoms: _71  and  _72
REMARK   31  A    between atoms: _75  and  _77
REMARK   32  A    between atoms: _77  and  _78
REMARK   33  A    between atoms: _80  and  _82
REMARK   34  A    between atoms: _82  and  _83
REMARK   35  A    between atoms: _82  and  _85
REMARK   36  A    between atoms: _85  and  _86
REMARK   37  A    between atoms: _89  and  _91
REMARK   38  A    between atoms: _91  and  _92
REMARK   39  A    between atoms: _91  and  _94
REMARK   40  A    between atoms: _94  and  _95
REMARK   41  A    between atoms: _97  and  _99
REMARK   42  A    between atoms: _99  and  _100
REMARK   43  A    between atoms: _99  and  _102
REMARK   44  A    between atoms: _102  and  _103
REMARK   45  A    between atoms: _113  and  _115
REMARK   46  A    between atoms: _115  and  _116
REMARK   47  A    between atoms: _115  and  _118
REMARK   48  A    between atoms: _118  and  _119
REMARK   49  A    between atoms: _125  and  _127
REMARK   50  A    between atoms: _127  and  _128
REMARK   51  A    between atoms: _127  and  _130
REMARK   52  A    between atoms: _130  and  _131
REMARK   53  A    between atoms: _136  and  _138
REMARK   54  A    between atoms: _138  and  _139
REMARK   55  A    between atoms: _138  and  _141
REMARK   56  A    between atoms: _141  and  _142
REMARK   57  A    between atoms: _142  and  _143
REMARK   58  A    between atoms: _146  and  _148
REMARK   59  A    between atoms: _148  and  _149
REMARK   60  A    between atoms: _148  and  _151
REMARK   61  A    between atoms: _151  and  _152
REMARK   62  A    between atoms: _162  and  _164
REMARK   63  A    between atoms: _164  and  _165
REMARK   64  A    between atoms: _167  and  _169
REMARK   65  A    between atoms: _169  and  _170
REMARK   66  A    between atoms: _169  and  _172
REMARK   67  A    between atoms: _172  and  _173
REMARK   68  A    between atoms: _178  and  _180
REMARK   69  A    between atoms: _180  and  _181
REMARK   70  A    between atoms: _180  and  _183
REMARK   71  A    between atoms: _183  and  _184
REMARK   72  A    between atoms: _187  and  _189
REMARK   73  A    between atoms: _189  and  _190
REMARK   74  A    between atoms: _192  and  _194
REMARK   75  A    between atoms: _194  and  _195
REMARK   76  A    between atoms: _194  and  _197
REMARK   77  A    between atoms: _197  and  _198
REMARK   78  A    between atoms: _208  and  _210
REMARK   79  A    between atoms: _210  and  _211
REMARK   80  A    between atoms: _210  and  _213
REMARK   81  A    between atoms: _213  and  _214
REMARK   82  A    between atoms: _216  and  _218
REMARK   83  A    between atoms: _218  and  _219
REMARK   84  A    between atoms: _218  and  _221
REMARK   85  A    between atoms: _221  and  _222
REMARK   86  A    between atoms: _222  and  _223
REMARK   87  A    between atoms: _225  and  _227
REMARK   88  A    between atoms: _227  and  _228
REMARK   89  A    between atoms: _227  and  _230
REMARK   90  A    between atoms: _233  and  _235
REMARK   91  A    between atoms: _235  and  _236
REMARK   92  A    between atoms: _238  and  _240
REMARK   93  A    between atoms: _240  and  _241
REMARK   94  A    between atoms: _240  and  _243
REMARK   95  A    between atoms: _243  and  _244
REMARK   96  A    between atoms: _247  and  _249
REMARK   97  A    between atoms: _249  and  _250
REMARK   98  A    between atoms: _252  and  _254
REMARK   99  A    between atoms: _254  and  _255
REMARK  100  A    between atoms: _254  and  _257
REMARK  101  A    between atoms: _257  and  _258
REMARK  102  A    between atoms: _260  and  _262
REMARK  103  A    between atoms: _262  and  _263
REMARK  104  A    between atoms: _262  and  _265
REMARK  105  A    between atoms: _265  and  _266
REMARK  106  A    between atoms: _272  and  _274
REMARK  107  A    between atoms: _274  and  _275
REMARK  108  A    between atoms: _274  and  _277
REMARK  109  A    between atoms: _277  and  _278
REMARK  110  A    between atoms: _278  and  _279
REMARK  111  A    between atoms: _284  and  _286
REMARK  112  A    between atoms: _286  and  _287
REMARK  113  A    between atoms: _286  and  _289
REMARK  114  A    between atoms: _289  and  _290
REMARK  115  A    between atoms: _293  and  _295
REMARK  116  A    between atoms: _295  and  _296
REMARK  117  A    between atoms: _295  and  _298
REMARK  118  A    between atoms: _298  and  _299
REMARK  119  A    between atoms: _302  and  _304
REMARK  120  A    between atoms: _304  and  _305
REMARK  121  A    between atoms: _304  and  _307
REMARK  122  A    between atoms: _307  and  _308
REMARK  123  A    between atoms: _311  and  _313
REMARK  124  A    between atoms: _313  and  _314
REMARK  125  A    between atoms: _313  and  _316
REMARK  126  A    between atoms: _316  and  _317
REMARK  127  A    between atoms: _322  and  _324
REMARK  128  A    between atoms: _324  and  _325
REMARK  129  A    between atoms: _324  and  _327
REMARK  130  A    between atoms: _327  and  _328
REMARK  131  A    between atoms: _333  and  _335
REMARK  132  A    between atoms: _335  and  _336
REMARK  133  A    between atoms: _335  and  _338
REMARK  134  A    between atoms: _338  and  _339
REMARK  135  A    between atoms: _344  and  _345
REMARK  136  A    between atoms: _347  and  _349
REMARK  137  A    between atoms: _349  and  _350
REMARK  138  A    between atoms: _352  and  _354
REMARK  139  A    between atoms: _354  and  _355
REMARK  140  A    between atoms: _354  and  _357
REMARK  141  A    between atoms: _357  and  _358
REMARK  142  A    between atoms: _363  and  _364
REMARK  143  A    between atoms: _366  and  _368
REMARK  144  A    between atoms: _368  and  _369
REMARK  145  A    between atoms: _368  and  _371
REMARK  146  A    between atoms: _371  and  _372
REMARK  147  A    between atoms: _375  and  _377
REMARK  148  A    between atoms: _377  and  _378
REMARK  149  A    between atoms: _377  and  _380
REMARK  150  A    between atoms: _380  and  _381
REMARK  151  A    between atoms: _384  and  _386
REMARK  152  A    between atoms: _386  and  _387
REMARK  153  A    between atoms: _386  and  _389
REMARK  154  A    between atoms: _389  and  _390
REMARK  155  A    between atoms: _390  and  _391
REMARK  156  A    between atoms: _394  and  _396
REMARK  157  A    between atoms: _396  and  _397
REMARK  158  A    between atoms: _396  and  _399
REMARK  159  A    between atoms: _402  and  _404
REMARK  160  A    between atoms: _404  and  _405
REMARK  161  A    between atoms: _404  and  _407
REMARK  162  A    between atoms: _407  and  _408
REMARK  163  A    between atoms: _408  and  _409
REMARK  164  A    between atoms: _411  and  _413
REMARK  165  A    between atoms: _413  and  _414
REMARK  166  A    between atoms: _413  and  _416
REMARK  167  A    between atoms: _416  and  _417
REMARK  168  A    between atoms: _420  and  _422
REMARK  169  A    between atoms: _422  and  _423
REMARK  170  A    between atoms: _422  and  _425
REMARK  171  A    between atoms: _425  and  _426
REMARK  172  A    between atoms: _431  and  _432
REMARK  173  A    between atoms: _434  and  _436
REMARK  174  A    between atoms: _436  and  _437
REMARK  175  A    between atoms: _436  and  _439
REMARK  176  A    between atoms: _439  and  _440
REMARK  177  A    between atoms: _445  and  _447
REMARK  178  A    between atoms: _447  and  _448
REMARK  179  A    between atoms: _447  and  _450
REMARK  180  A    between atoms: _450  and  _451
REMARK  181  A    between atoms: _454  and  _456
REMARK  182  A    between atoms: _456  and  _457
REMARK  183  A    between atoms: _456  and  _459
REMARK  184  A    between atoms: _459  and  _460
REMARK  185  A    between atoms: _465  and  _466
REMARK  186  A    between atoms: _468  and  _470
REMARK  187  A    between atoms: _470  and  _471
REMARK  188  A    between atoms: _470  and  _473
REMARK  189  A    between atoms: _473  and  _474
REMARK  190  A    between atoms: _477  and  _479
REMARK  191  A    between atoms: _479  and  _480
REMARK  192  A    between atoms: _482  and  _484
REMARK  193  A    between atoms: _484  and  _485
REMARK  194  A    between atoms: _484  and  _487
REMARK  195  A    between atoms: _487  and  _488
REMARK  196  A    between atoms: _488  and  _489
REMARK  197  A    between atoms: _489  and  _490
REMARK  198  A    between atoms: _499  and  _501
REMARK  199  A    between atoms: _501  and  _502
REMARK  200  A    between atoms: _501  and  _504
REMARK  201  A    between atoms: _504  and  _505
REMARK  202  A    between atoms: _508  and  _510
REMARK  203  A    between atoms: _510  and  _511
REMARK  204  A    between atoms: _510  and  _513
REMARK  205  A    between atoms: _515  and  _517
REMARK  206  A    between atoms: _517  and  _518
REMARK  207  A    between atoms: _517  and  _520
REMARK  208  A    between atoms: _520  and  _521
REMARK  209  A    between atoms: _524  and  _526
REMARK  210  A    between atoms: _526  and  _527
REMARK  211  A    between atoms: _526  and  _529
REMARK  212  A    between atoms: _529  and  _530
REMARK  213  A    between atoms: _533  and  _535
REMARK  214  A    between atoms: _535  and  _536
REMARK  215  A    between atoms: _535  and  _538
REMARK  216  A    between atoms: _541  and  _543
REMARK  217  A    between atoms: _543  and  _544
REMARK  218  A    between atoms: _547  and  _549
REMARK  219  A    between atoms: _549  and  _550
REMARK  220  A    between atoms: _552  and  _554
REMARK  221  A    between atoms: _554  and  _555
REMARK  222  A    between atoms: _554  and  _557
REMARK  223  A    between atoms: _557  and  _558
REMARK  224  A    between atoms: _561  and  _563
REMARK  225  A    between atoms: _563  and  _564
REMARK  226  A    between atoms: _563  and  _566
REMARK  227  A    between atoms: _566  and  _567
REMARK  228  A    between atoms: _572  and  _573
REMARK  229  A    between atoms: _575  and  _577
REMARK  230  A    between atoms: _577  and  _578
REMARK  231  A    between atoms: _577  and  _580
REMARK  232  A    between atoms: _580  and  _581
REMARK  233  A    between atoms: _586  and  _588
REMARK  234  A    between atoms: _588  and  _589
REMARK  235  A    between atoms: _588  and  _591
REMARK  236  A    between atoms: _591  and  _592
REMARK  237  A    between atoms: _595  and  _597
REMARK  238  A    between atoms: _597  and  _598
REMARK  239  A    between atoms: _597  and  _600
REMARK  240  A    between atoms: _602  and  _604
REMARK  241  A    between atoms: _604  and  _605
REMARK  242  A    between atoms: _604  and  _607
REMARK  243  A    between atoms: _609  and  _611
REMARK  244  A    between atoms: _611  and  _612
REMARK  245  A    between atoms: _611  and  _614
REMARK  246  A    between atoms: _614  and  _615
REMARK  247  A    between atoms: _620  and  _622
REMARK  248  A    between atoms: _622  and  _623
REMARK  249  A    between atoms: _622  and  _625
REMARK  250  A    between atoms: _625  and  _626
REMARK  251  A    between atoms: _626  and  _627
REMARK  252  A    between atoms: _630  and  _632
REMARK  253  A    between atoms: _632  and  _633
REMARK  254  A    between atoms: _632  and  _635
REMARK  255  A    between atoms: _635  and  _636
REMARK  256  A    between atoms: _639  and  _641
REMARK  257  A    between atoms: _641  and  _642
REMARK  258  A    between atoms: _641  and  _644
REMARK  259  A    between atoms: _647  and  _649
REMARK  260  A    between atoms: _649  and  _650
REMARK  261  A    between atoms: _649  and  _652
REMARK  262  A    between atoms: _652  and  _653
REMARK  263  A    between atoms: _656  and  _658
REMARK  264  A    between atoms: _658  and  _659
REMARK  265  A    between atoms: _658  and  _661
REMARK  266  A    between atoms: _661  and  _662
REMARK  267  A    between atoms: _667  and  _668
REMARK  268  A    between atoms: _670  and  _672
REMARK  269  A    between atoms: _672  and  _673
REMARK  270  A    between atoms: _672  and  _675
REMARK  271  A    between atoms: _675  and  _676
REMARK  272  A    between atoms: _678  and  _680
REMARK  273  A    between atoms: _680  and  _681
REMARK  274  A    between atoms: _680  and  _683
REMARK  275  A    between atoms: _686  and  _688
REMARK  276  A    between atoms: _688  and  _689
REMARK  277  A    between atoms: _691  and  _693
REMARK  278  A    between atoms: _693  and  _694
REMARK  279  A    between atoms: _697  and  _699
REMARK  280  A    between atoms: _699  and  _700
REMARK  281  A    between atoms: _699  and  _702
REMARK  282  A    between atoms: _702  and  _703
REMARK  283  A    between atoms: _706  and  _708
REMARK  284  A    between atoms: _708  and  _709
REMARK  285  A    between atoms: _708  and  _711
REMARK  286  A    between atoms: _711  and  _712
REMARK  287  A    between atoms: _714  and  _716
REMARK  288  A    between atoms: _716  and  _717
REMARK  289  A    between atoms: _720  and  _722
REMARK  290  A    between atoms: _722  and  _723
REMARK  291  A    between atoms: _722  and  _725
REMARK  292  A    between atoms: _725  and  _726
REMARK  293  A    between atoms: _731  and  _733
REMARK  294  A    between atoms: _733  and  _734
REMARK  295  A    between atoms: _733  and  _736
REMARK  296  A    between atoms: _736  and  _737
REMARK                            x       y       z     vdW  Elec       q    Type
REMARK                         _______ _______ _______ _____ _____    ______ ____
ROOT
ATOM      1  CA  ILE A   1     -19.678  30.455 -65.260  0.00  0.00    +0.133 C 
ENDROOT
BRANCH   1   2
ATOM      2  N   ILE A   1     -21.129  30.327 -65.255  0.00  0.00    -0.239 NA
ATOM      3  H   ILE A   1     -21.717  31.168 -65.422  0.00  0.00    +0.142 HD
ENDBRANCH   1   2
BRANCH   1   4
ATOM      4  C   ILE A   1     -19.224  31.566 -64.308  0.00  0.00    +0.224 C 
ATOM      5  O   ILE A   1     -20.033  32.369 -63.844  0.00  0.00    -0.287 OA
ENDBRANCH   1   4
BRANCH   1   6
ATOM      6  CB  ILE A   1     -19.133  30.759 -66.684  0.00  0.00    +0.023 C 
ATOM      7  CG2 ILE A   1     -19.532  29.674 -67.684  0.00  0.00    +0.002 C 
BRANCH   6   8
ATOM      8  CG1 ILE A   1     -19.623  32.123 -67.168  0.00  0.00    +0.002 C 
ATOM      9  CD1 ILE A   1     -19.215  32.435 -68.567  0.00  0.00    +0.000 C 
ENDBRANCH   6   8
ENDBRANCH   1   6
TORSDOF 4
REMARK  Name = ../refined-set-2016/2wva/2wva_pocket.pdb
REMARK  296 active torsions:
REMARK  status: ('A' for Active; 'I' for Inactive)
REMARK    1  A    between atoms: _1  and  _3
REMARK    2  A    between atoms: _3  and  _4
REMARK    3  A    between atoms: _3  and  _6
REMARK    4  A    between atoms: _6  and  _7
REMARK    5  A    between atoms: _10  and  _12
REMARK    6  A    between atoms: _12  and  _13
REMARK    7  A    between atoms: _12  and  _15
REMARK    8  A    between atoms: _15  and  _16
REMARK    9  A    between atoms: _22  and  _24
REMARK   10  A    between atoms: _24  and  _25
REMARK   11  A    between atoms: _24  and  _27
REMARK   12  A    between atoms: _27  and  _28
REMARK   13  A    between atoms: _31  and  _33
REMARK   14  A    between atoms: _33  and  _34
REMARK   15  A    between atoms: _33  and  _36
REMARK   16  A    between atoms: _36  and  _37
REMARK   17  A    between atoms: _42  and  _43
REMARK   18  A    between atoms: _45  and  _47
REMARK   19  A    between atoms: _47  and  _48
REMARK   20  A    between atoms: _47  and  _50
REMARK   21  A    between atoms: _50  and  _51
REMARK   22  A    between atoms: _56  and  _58
REMARK   23  A    between atoms: _58  and  _59
REMARK   24  A    between atoms: _58  and  _61
REMARK   25  A    between atoms: _61  and  _62
REMARK   26  A    between atoms: _62  and  _63
REMARK   27  A    between atoms: _66  and  _68
REMARK   28  A    between atoms: _68  and  _69
REMARK   29  A    between atoms: _68  and  _71
REMARK   30  A    between atoms: _71  and  _72
REMARK   31  A    between atoms: _75  and  _77
REMARK   32  A    between atoms: _77  and  _78
REMARK   33  A    between atoms: _80  and  _82
REMARK   34  A    between atoms: _82  and  _83
REMARK   35  A    between atoms: _82  and  _85
REMARK   36  A    between atoms: _85  and  _86
REMARK   37  A    between atoms: _89  and  _91
REMARK   38  A    between atoms: _91  and  _92
REMARK   39  A    between atoms: _91  and  _94
REMARK   40  A    between atoms: _94  and  _95
REMARK   41  A    between atoms: _97  and  _99
REMARK   42  A    between atoms: _99  and  _100
REMARK   43  A    between atoms: _99  and  _102
REMARK   44  A    between atoms: _102  and  _103
REMARK   45  A    between atoms: _113  and  _115
REMARK   46  A    between atoms: _115  and  _116
REMARK   47  A    between atoms: _115  and  _118
REMARK   48  A    between atoms: _118  and  _119
REMARK   49  A    between atoms: _125  and  _127
REMARK   50  A    between atoms: _127  and  _128
REMARK   51  A    between atoms: _127  and  _130
REMARK   52  A    between atoms: _130  and  _131
REMARK   53  A    between atoms: _136  and  _138
REMARK   54  A    between atoms: _138  and  _139
REMARK   55  A    between atoms: _138  and  _141
REMARK   56  A    between atoms: _141  and  _142
REMARK   57  A    between atoms: _142  and  _143
REMARK   58  A    between atoms: _146  and  _148
REMARK   59  A    between atoms: _148  and  _149
REMARK   60  A    between atoms: _148  and  _151
REMARK   61  A    between atoms: _151  and  _152
REMARK   62  A    between atoms: _162  and  _164
REMARK   63  A    between atoms: _164  and  _165
REMARK   64  A    between atoms: _167  and  _169
REMARK   65  A    between atoms: _169  and  _170
REMARK   66  A    between atoms: _169  and  _172
REMARK   67  A    between atoms: _172  and  _173
REMARK   68  A    between atoms: _178  and  _180
REMARK   69  A    between atoms: _180  and  _181
REMARK   70  A    between atoms: _180  and  _183
REMARK   71  A    between atoms: _183  and  _184
REMARK   72  A    between atoms: _187  and  _189
REMARK   73  A    between atoms: _189  and  _190
REMARK   74  A    between atoms: _192  and  _194
REMARK   75  A    between atoms: _194  and  _195
REMARK   76  A    between atoms: _194  and  _197
REMARK   77  A    between atoms: _197  and  _198
REMARK   78  A    between atoms: _208  and  _210
REMARK   79  A    between atoms: _210  and  _211
REMARK   80  A    between atoms: _210  and  _213
REMARK   81  A    between atoms: _213  and  _214
REMARK   82  A    between atoms: _216  and  _218
REMARK   83  A    between atoms: _218  and  _219
REMARK   84  A    between atoms: _218  and  _221
REMARK   85  A    between atoms: _221  and  _222
REMARK   86  A    between atoms: _222  and  _223
REMARK   87  A    between atoms: _225  and  _227
REMARK   88  A    between atoms: _227  and  _228
REMARK   89  A    between atoms: _227  and  _230
REMARK   90  A    between atoms: _233  and  _235
REMARK   91  A    between atoms: _235  and  _236
REMARK   92  A    between atoms: _238  and  _240
REMARK   93  A    between atoms: _240  and  _241
REMARK   94  A    between atoms: _240  and  _243
REMARK   95  A    between atoms: _243  and  _244
REMARK   96  A    between atoms: _247  and  _249
REMARK   97  A    between atoms: _249  and  _250
REMARK   98  A    between atoms: _252  and  _254
REMARK   99  A    between atoms: _254  and  _255
REMARK  100  A    between atoms: _254  and  _257
REMARK  101  A    between atoms: _257  and  _258
REMARK  102  A    between atoms: _260  and  _262
REMARK  103  A    between atoms: _262  and  _263
REMARK  104  A    between atoms: _262  and  _265
REMARK  105  A    between atoms: _265  and  _266
REMARK  106  A    between atoms: _272  and  _274
REMARK  107  A    between atoms: _274  and  _275
REMARK  108  A    between atoms: _274  and  _277
REMARK  109  A    between atoms: _277  and  _278
REMARK  110  A    between atoms: _278  and  _279
REMARK  111  A    between atoms: _284  and  _286
REMARK  112  A    between atoms: _286  and  _287
REMARK  113  A    between atoms: _286  and  _289
REMARK  114  A    between atoms: _289  and  _290
REMARK  115  A    between atoms: _293  and  _295
REMARK  116  A    between atoms: _295  and  _296
REMARK  117  A    between atoms: _295  and  _298
REMARK  118  A    between atoms: _298  and  _299
REMARK  119  A    between atoms: _302  and  _304
REMARK  120  A    between atoms: _304  and  _305
REMARK  121  A    between atoms: _304  and  _307
REMARK  122  A    between atoms: _307  and  _308
REMARK  123  A    between atoms: _311  and  _313
REMARK  124  A    between atoms: _313  and  _314
REMARK  125  A    between atoms: _313  and  _316
REMARK  126  A    between atoms: _316  and  _317
REMARK  127  A    between atoms: _322  and  _324
REMARK  128  A    between atoms: _324  and  _325
REMARK  129  A    between atoms: _324  and  _327
REMARK  130  A    between atoms: _327  and  _328
REMARK  131  A    between atoms: _333  and  _335
REMARK  132  A    between atoms: _335  and  _336
REMARK  133  A    between atoms: _335  and  _338
REMARK  134  A    between atoms: _338  and  _339
REMARK  135  A    between atoms: _344  and  _345
REMARK  136  A    between atoms: _347  and  _349
REMARK  137  A    between atoms: _349  and  _350
REMARK  138  A    between atoms: _352  and  _354
REMARK  139  A    between atoms: _354  and  _355
REMARK  140  A    between atoms: _354  and  _357
REMARK  141  A    between atoms: _357  and  _358
REMARK  142  A    between atoms: _363  and  _364
REMARK  143  A    between atoms: _366  and  _368
REMARK  144  A    between atoms: _368  and  _369
REMARK  145  A    between atoms: _368  and  _371
REMARK  146  A    between atoms: _371  and  _372
REMARK  147  A    between atoms: _375  and  _377
REMARK  148  A    between atoms: _377  and  _378
REMARK  149  A    between atoms: _377  and  _380
REMARK  150  A    between atoms: _380  and  _381
REMARK  151  A    between atoms: _384  and  _386
REMARK  152  A    between atoms: _386  and  _387
REMARK  153  A    between atoms: _386  and  _389
REMARK  154  A    between atoms: _389  and  _390
REMARK  155  A    between atoms: _390  and  _391
REMARK  156  A    between atoms: _394  and  _396
REMARK  157  A    between atoms: _396  and  _397
REMARK  158  A    between atoms: _396  and  _399
REMARK  159  A    between atoms: _402  and  _404
REMARK  160  A    between atoms: _404  and  _405
REMARK  161  A    between atoms: _404  and  _407
REMARK  162  A    between atoms: _407  and  _408
REMARK  163  A    between atoms: _408  and  _409
REMARK  164  A    between atoms: _411  and  _413
REMARK  165  A    between atoms: _413  and  _414
REMARK  166  A    between atoms: _413  and  _416
REMARK  167  A    between atoms: _416  and  _417
REMARK  168  A    between atoms: _420  and  _422
REMARK  169  A    between atoms: _422  and  _423
REMARK  170  A    between atoms: _422  and  _425
REMARK  171  A    between atoms: _425  and  _426
REMARK  172  A    between atoms: _431  and  _432
REMARK  173  A    between atoms: _434  and  _436
REMARK  174  A    between atoms: _436  and  _437
REMARK  175  A    between atoms: _436  and  _439
REMARK  176  A    between atoms: _439  and  _440
REMARK  177  A    between atoms: _445  and  _447
REMARK  178  A    between atoms: _447  and  _448
REMARK  179  A    between atoms: _447  and  _450
REMARK  180  A    between atoms: _450  and  _451
REMARK  181  A    between atoms: _454  and  _456
REMARK  182  A    between atoms: _456  and  _457
REMARK  183  A    between atoms: _456  and  _459
REMARK  184  A    between atoms: _459  and  _460
REMARK  185  A    between atoms: _465  and  _466
REMARK  186  A    between atoms: _468  and  _470
REMARK  187  A    between atoms: _470  and  _471
REMARK  188  A    between atoms: _470  and  _473
REMARK  189  A    between atoms: _473  and  _474
REMARK  190  A    between atoms: _477  and  _479
REMARK  191  A    between atoms: _479  and  _480
REMARK  192  A    between atoms: _482  and  _484
REMARK  193  A    between atoms: _484  and  _485
REMARK  194  A    between atoms: _484  and  _487
REMARK  195  A    between atoms: _487  and  _488
REMARK  196  A    between atoms: _488  and  _489
REMARK  197  A    between atoms: _489  and  _490
REMARK  198  A    between atoms: _499  and  _501
REMARK  199  A    between atoms: _501  and  _502
REMARK  200  A    between atoms: _501  and  _504
REMARK  201  A    between atoms: _504  and  _505
REMARK  202  A    between atoms: _508  and  _510
REMARK  203  A    between atoms: _510  and  _511
REMARK  204  A    between atoms: _510  and  _513
REMARK  205  A    between atoms: _515  and  _517
REMARK  206  A    between atoms: _517  and  _518
REMARK  207  A    between atoms: _517  and  _520
REMARK  208  A    between atoms: _520  and  _521
REMARK  209  A    between atoms: _524  and  _526
REMARK  210  A    between atoms: _526  and  _527
REMARK  211  A    between atoms: _526  and  _529
REMARK  212  A    between atoms: _529  and  _530
REMARK  213  A    between atoms: _533  and  _535
REMARK  214  A    between atoms: _535  and  _536
REMARK  215  A    between atoms: _535  and  _538
REMARK  216  A    between atoms: _541  and  _543
REMARK  217  A    between atoms: _543  and  _544
REMARK  218  A    between atoms: _547  and  _549
REMARK  219  A    between atoms: _549  and  _550
REMARK  220  A    between atoms: _552  and  _554
REMARK  221  A    between atoms: _554  and  _555
REMARK  222  A    between atoms: _554  and  _557
REMARK  223  A    between atoms: _557  and  _558
REMARK  224  A    between atoms: _561  and  _563
REMARK  225  A    between atoms: _563  and  _564
REMARK  226  A    between atoms: _563  and  _566
REMARK  227  A    between atoms: _566  and  _567
REMARK  228  A    between atoms: _572  and  _573
REMARK  229  A    between atoms: _575  and  _577
REMARK  230  A    between atoms: _577  and  _578
REMARK  231  A    between atoms: _577  and  _580
REMARK  232  A    between atoms: _580  and  _581
REMARK  233  A    between atoms: _586  and  _588
REMARK  234  A    between atoms: _588  and  _589
REMARK  235  A    between atoms: _588  and  _591
REMARK  236  A    between atoms: _591  and  _592
REMARK  237  A    between atoms: _595  and  _597
REMARK  238  A    between atoms: _597  and  _598
REMARK  239  A    between atoms: _597  and  _600
REMARK  240  A    between atoms: _602  and  _604
REMARK  241  A    between atoms: _604  and  _605
REMARK  242  A    between atoms: _604  and  _607
REMARK  243  A    between atoms: _609  and  _611
REMARK  244  A    between atoms: _611  and  _612
REMARK  245  A    between atoms: _611  and  _614
REMARK  246  A    between atoms: _614  and  _615
REMARK  247  A    between atoms: _620  and  _622
REMARK  248  A    between atoms: _622  and  _623
REMARK  249  A    between atoms: _622  and  _625
REMARK  250  A    between atoms: _625  and  _626
REMARK  251  A    between atoms: _626  and  _627
REMARK  252  A    between atoms: _630  and  _632
REMARK  253  A    between atoms: _632  and  _633
REMARK  254  A    between atoms: _632  and  _635
REMARK  255  A    between atoms: _635  and  _636
REMARK  256  A    between atoms: _639  and  _641
REMARK  257  A    between atoms: _641  and  _642
REMARK  258  A    between atoms: _641  and  _644
REMARK  259  A    between atoms: _647  and  _649
REMARK  260  A    between atoms: _649  and  _650
REMARK  261  A    between atoms: _649  and  _652
REMARK  262  A    between atoms: _652  and  _653
REMARK  263  A    between atoms: _656  and  _658
REMARK  264  A    between atoms: _658  and  _659
REMARK  265  A    between atoms: _658  and  _661
REMARK  266  A    between atoms: _661  and  _662
REMARK  267  A    between atoms: _667  and  _668
REMARK  268  A    between atoms: _670  and  _672
REMARK  269  A    between atoms: _672  and  _673
REMARK  270  A    between atoms: _672  and  _675
REMARK  271  A    between atoms: _675  and  _676
REMARK  272  A    between atoms: _678  and  _680
REMARK  273  A    between atoms: _680  and  _681
REMARK  274  A    between atoms: _680  and  _683
REMARK  275  A    between atoms: _686  and  _688
REMARK  276  A    between atoms: _688  and  _689
REMARK  277  A    between atoms: _691  and  _693
REMARK  278  A    between atoms: _693  and  _694
REMARK  279  A    between atoms: _697  and  _699
REMARK  280  A    between atoms: _699  and  _700
REMARK  281  A    between atoms: _699  and  _702
REMARK  282  A    between atoms: _702  and  _703
REMARK  283  A    between atoms: _706  and  _708
REMARK  284  A    between atoms: _708  and  _709
REMARK  285  A    between atoms: _708  and  _711
REMARK  286  A    between atoms: _711  and  _712
REMARK  287  A    between atoms: _714  and  _716
REMARK  288  A    between atoms: _716  and  _717
REMARK  289  A    between atoms: _720  and  _722
REMARK  290  A    between atoms: _722  and  _723
REMARK  291  A    between atoms: _722  and  _725
REMARK  292  A    between atoms: _725  and  _726
REMARK  293  A    between atoms: _731  and  _733
REMARK  294  A    between atoms: _733  and  _734
REMARK  295  A    between atoms: _733  and  _736
REMARK  296  A    between atoms: _736  and  _737
REMARK                            x       y       z     vdW  Elec       q    Type
REMARK                         _______ _______ _______ _____ _____    ______ ____
ROOT
ATOM      1  CG  TYR A   1     -14.798  38.911 -70.575  0.00  0.00    -0.020 A 
ATOM      2  CD2 TYR A   1     -16.045  39.017 -69.973  0.00  0.00    -0.001 A 
ATOM      3  CE2 TYR A   1     -16.701  37.901 -69.478  0.00  0.00    +0.036 A 
ATOM      4  CZ  TYR A   1     -16.110  36.660 -69.584  0.00  0.00    +0.134 A 
ATOM      5  CE1 TYR A   1     -14.868  36.531 -70.185  0.00  0.00    +0.036 A 
ATOM      6  CD1 TYR A   1     -14.223  37.648 -70.671  0.00  0.00    -0.001 A 
ENDROOT
BRANCH   4   7
ATOM      7  OH  TYR A   1     -16.762  35.550 -69.086  0.00  0.00    -0.506 OA
ATOM      8  HH  TYR A   1     -17.632  35.446 -69.546  0.00  0.00    +0.292 HD
ENDBRANCH   4   7
BRANCH   1   9
ATOM      9  CB  TYR A   1     -14.086  40.137 -71.107  0.00  0.00    +0.051 C 
BRANCH   9  10
ATOM     10  CA  TYR A   1     -12.997  40.664 -70.169  0.00  0.00    +0.137 C 
BRANCH  10  11
ATOM     11  N   TYR A   1     -13.566  40.973 -68.858  0.00  0.00    -0.239 NA
ATOM     12  H   TYR A   1     -14.583  40.824 -68.701  0.00  0.00    +0.142 HD
ENDBRANCH  10  11
BRANCH  10  13
ATOM     13  C   TYR A   1     -12.260  41.847 -70.791  0.00  0.00    +0.224 C 
ATOM     14  O   TYR A   1     -11.177  41.689 -71.346  0.00  0.00    -0.287 OA
ENDBRANCH  10  13
ENDBRANCH   9  10
ENDBRANCH   1   9
TORSDOF 5
REMARK  Name = ../refined-set-2016/2wva/2wva_pocket.pdb
REMARK  296 active torsions:
REMARK  status: ('A' for Active; 'I' for Inactive)
REMARK    1  A    between atoms: _1  and  _3
REMARK    2  A    between atoms: _3  and  _4
REMARK    3  A    between atoms: _3  and  _6
REMARK    4  A    between atoms: _6  and  _7
REMARK    5  A    between atoms: _10  and  _12
REMARK    6  A    between atoms: _12  and  _13
REMARK    7  A    between atoms: _12  and  _15
REMARK    8  A    between atoms: _15  and  _16
REMARK    9  A    between atoms: _22  and  _24
REMARK   10  A    between atoms: _24  and  _25
REMARK   11  A    between atoms: _24  and  _27
REMARK   12  A    between atoms: _27  and  _28
REMARK   13  A    between atoms: _31  and  _33
REMARK   14  A    between atoms: _33  and  _34
REMARK   15  A    between atoms: _33  and  _36
REMARK   16  A    between atoms: _36  and  _37
REMARK   17  A    between atoms: _42  and  _43
REMARK   18  A    between atoms: _45  and  _47
REMARK   19  A    between atoms: _47  and  _48
REMARK   20  A    between atoms: _47  and  _50
REMARK   21  A    between atoms: _50  and  _51
REMARK   22  A    between atoms: _56  and  _58
REMARK   23  A    between atoms: _58  and  _59
REMARK   24  A    between atoms: _58  and  _61
REMARK   25  A    between atoms: _61  and  _62
REMARK   26  A    between atoms: _62  and  _63
REMARK   27  A    between atoms: _66  and  _68
REMARK   28  A    between atoms: _68  and  _69
REMARK   29  A    between atoms: _68  and  _71
REMARK   30  A    between atoms: _71  and  _72
REMARK   31  A    between atoms: _75  and  _77
REMARK   32  A    between atoms: _77  and  _78
REMARK   33  A    between atoms: _80  and  _82
REMARK   34  A    between atoms: _82  and  _83
REMARK   35  A    between atoms: _82  and  _85
REMARK   36  A    between atoms: _85  and  _86
REMARK   37  A    between atoms: _89  and  _91
REMARK   38  A    between atoms: _91  and  _92
REMARK   39  A    between atoms: _91  and  _94
REMARK   40  A    between atoms: _94  and  _95
REMARK   41  A    between atoms: _97  and  _99
REMARK   42  A    between atoms: _99  and  _100
REMARK   43  A    between atoms: _99  and  _102
REMARK   44  A    between atoms: _102  and  _103
REMARK   45  A    between atoms: _113  and  _115
REMARK   46  A    between atoms: _115  and  _116
REMARK   47  A    between atoms: _115  and  _118
REMARK   48  A    between atoms: _118  and  _119
REMARK   49  A    between atoms: _125  and  _127
REMARK   50  A    between atoms: _127  and  _128
REMARK   51  A    between atoms: _127  and  _130
REMARK   52  A    between atoms: _130  and  _131
REMARK   53  A    between atoms: _136  and  _138
REMARK   54  A    between atoms: _138  and  _139
REMARK   55  A    between atoms: _138  and  _141
REMARK   56  A    between atoms: _141  and  _142
REMARK   57  A    between atoms: _142  and  _143
REMARK   58  A    between atoms: _146  and  _148
REMARK   59  A    between atoms: _148  and  _149
REMARK   60  A    between atoms: _148  and  _151
REMARK   61  A    between atoms: _151  and  _152
REMARK   62  A    between atoms: _162  and  _164
REMARK   63  A    between atoms: _164  and  _165
REMARK   64  A    between atoms: _167  and  _169
REMARK   65  A    between atoms: _169  and  _170
REMARK   66  A    between atoms: _169  and  _172
REMARK   67  A    between atoms: _172  and  _173
REMARK   68  A    between atoms: _178  and  _180
REMARK   69  A    between atoms: _180  and  _181
REMARK   70  A    between atoms: _180  and  _183
REMARK   71  A    between atoms: _183  and  _184
REMARK   72  A    between atoms: _187  and  _189
REMARK   73  A    between atoms: _189  and  _190
REMARK   74  A    between atoms: _192  and  _194
REMARK   75  A    between atoms: _194  and  _195
REMARK   76  A    between atoms: _194  and  _197
REMARK   77  A    between atoms: _197  and  _198
REMARK   78  A    between atoms: _208  and  _210
REMARK   79  A    between atoms: _210  and  _211
REMARK   80  A    between atoms: _210  and  _213
REMARK   81  A    between atoms: _213  and  _214
REMARK   82  A    between atoms: _216  and  _218
REMARK   83  A    between atoms: _218  and  _219
REMARK   84  A    between atoms: _218  and  _221
REMARK   85  A    between atoms: _221  and  _222
REMARK   86  A    between atoms: _222  and  _223
REMARK   87  A    between atoms: _225  and  _227
REMARK   88  A    between atoms: _227  and  _228
REMARK   89  A    between atoms: _227  and  _230
REMARK   90  A    between atoms: _233  and  _235
REMARK   91  A    between atoms: _235  and  _236
REMARK   92  A    between atoms: _238  and  _240
REMARK   93  A    between atoms: _240  and  _241
REMARK   94  A    between atoms: _240  and  _243
REMARK   95  A    between atoms: _243  and  _244
REMARK   96  A    between atoms: _247  and  _249
REMARK   97  A    between atoms: _249  and  _250
REMARK   98  A    between atoms: _252  and  _254
REMARK   99  A    between atoms: _254  and  _255
REMARK  100  A    between atoms: _254  and  _257
REMARK  101  A    between atoms: _257  and  _258
REMARK  102  A    between atoms: _260  and  _262
REMARK  103  A    between atoms: _262  and  _263
REMARK  104  A    between atoms: _262  and  _265
REMARK  105  A    between atoms: _265  and  _266
REMARK  106  A    between atoms: _272  and  _274
REMARK  107  A    between atoms: _274  and  _275
REMARK  108  A    between atoms: _274  and  _277
REMARK  109  A    between atoms: _277  and  _278
REMARK  110  A    between atoms: _278  and  _279
REMARK  111  A    between atoms: _284  and  _286
REMARK  112  A    between atoms: _286  and  _287
REMARK  113  A    between atoms: _286  and  _289
REMARK  114  A    between atoms: _289  and  _290
REMARK  115  A    between atoms: _293  and  _295
REMARK  116  A    between atoms: _295  and  _296
REMARK  117  A    between atoms: _295  and  _298
REMARK  118  A    between atoms: _298  and  _299
REMARK  119  A    between atoms: _302  and  _304
REMARK  120  A    between atoms: _304  and  _305
REMARK  121  A    between atoms: _304  and  _307
REMARK  122  A    between atoms: _307  and  _308
REMARK  123  A    between atoms: _311  and  _313
REMARK  124  A    between atoms: _313  and  _314
REMARK  125  A    between atoms: _313  and  _316
REMARK  126  A    between atoms: _316  and  _317
REMARK  127  A    between atoms: _322  and  _324
REMARK  128  A    between atoms: _324  and  _325
REMARK  129  A    between atoms: _324  and  _327
REMARK  130  A    between atoms: _327  and  _328
REMARK  131  A    between atoms: _333  and  _335
REMARK  132  A    between atoms: _335  and  _336
REMARK  133  A    between atoms: _335  and  _338
REMARK  134  A    between atoms: _338  and  _339
REMARK  135  A    between atoms: _344  and  _345
REMARK  136  A    between atoms: _347  and  _349
REMARK  137  A    between atoms: _349  and  _350
REMARK  138  A    between atoms: _352  and  _354
REMARK  139  A    between atoms: _354  and  _355
REMARK  140  A    between atoms: _354  and  _357
REMARK  141  A    between atoms: _357  and  _358
REMARK  142  A    between atoms: _363  and  _364
REMARK  143  A    between atoms: _366  and  _368
REMARK  144  A    between atoms: _368  and  _369
REMARK  145  A    between atoms: _368  and  _371
REMARK  146  A    between atoms: _371  and  _372
REMARK  147  A    between atoms: _375  and  _377
REMARK  148  A    between atoms: _377  and  _378
REMARK  149  A    between atoms: _377  and  _380
REMARK  150  A    between atoms: _380  and  _381
REMARK  151  A    between atoms: _384  and  _386
REMARK  152  A    between atoms: _386  and  _387
REMARK  153  A    between atoms: _386  and  _389
REMARK  154  A    between atoms: _389  and  _390
REMARK  155  A    between atoms: _390  and  _391
REMARK  156  A    between atoms: _394  and  _396
REMARK  157  A    between atoms: _396  and  _397
REMARK  158  A    between atoms: _396  and  _399
REMARK  159  A    between atoms: _402  and  _404
REMARK  160  A    between atoms: _404  and  _405
REMARK  161  A    between atoms: _404  and  _407
REMARK  162  A    between atoms: _407  and  _408
REMARK  163  A    between atoms: _408  and  _409
REMARK  164  A    between atoms: _411  and  _413
REMARK  165  A    between atoms: _413  and  _414
REMARK  166  A    between atoms: _413  and  _416
REMARK  167  A    between atoms: _416  and  _417
REMARK  168  A    between atoms: _420  and  _422
REMARK  169  A    between atoms: _422  and  _423
REMARK  170  A    between atoms: _422  and  _425
REMARK  171  A    between atoms: _425  and  _426
REMARK  172  A    between atoms: _431  and  _432
REMARK  173  A    between atoms: _434  and  _436
REMARK  174  A    between atoms: _436  and  _437
REMARK  175  A    between atoms: _436  and  _439
REMARK  176  A    between atoms: _439  and  _440
REMARK  177  A    between atoms: _445  and  _447
REMARK  178  A    between atoms: _447  and  _448
REMARK  179  A    between atoms: _447  and  _450
REMARK  180  A    between atoms: _450  and  _451
REMARK  181  A    between atoms: _454  and  _456
REMARK  182  A    between atoms: _456  and  _457
REMARK  183  A    between atoms: _456  and  _459
REMARK  184  A    between atoms: _459  and  _460
REMARK  185  A    between atoms: _465  and  _466
REMARK  186  A    between atoms: _468  and  _470
REMARK  187  A    between atoms: _470  and  _471
REMARK  188  A    between atoms: _470  and  _473
REMARK  189  A    between atoms: _473  and  _474
REMARK  190  A    between atoms: _477  and  _479
REMARK  191  A    between atoms: _479  and  _480
REMARK  192  A    between atoms: _482  and  _484
REMARK  193  A    between atoms: _484  and  _485
REMARK  194  A    between atoms: _484  and  _487
REMARK  195  A    between atoms: _487  and  _488
REMARK  196  A    between atoms: _488  and  _489
REMARK  197  A    between atoms: _489  and  _490
REMARK  198  A    between atoms: _499  and  _501
REMARK  199  A    between atoms: _501  and  _502
REMARK  200  A    between atoms: _501  and  _504
REMARK  201  A    between atoms: _504  and  _505
REMARK  202  A    between atoms: _508  and  _510
REMARK  203  A    between atoms: _510  and  _511
REMARK  204  A    between atoms: _510  and  _513
REMARK  205  A    between atoms: _515  and  _517
REMARK  206  A    between atoms: _517  and  _518
REMARK  207  A    between atoms: _517  and  _520
REMARK  208  A    between atoms: _520  and  _521
REMARK  209  A    between atoms: _524  and  _526
REMARK  210  A    between atoms: _526  and  _527
REMARK  211  A    between atoms: _526  and  _529
REMARK  212  A    between atoms: _529  and  _530
REMARK  213  A    between atoms: _533  and  _535
REMARK  214  A    between atoms: _535  and  _536
REMARK  215  A    between atoms: _535  and  _538
REMARK  216  A    between atoms: _541  and  _543
REMARK  217  A    between atoms: _543  and  _544
REMARK  218  A    between atoms: _547  and  _549
REMARK  219  A    between atoms: _549  and  _550
REMARK  220  A    between atoms: _552  and  _554
REMARK  221  A    between atoms: _554  and  _555
REMARK  222  A    between atoms: _554  and  _557
REMARK  223  A    between atoms: _557  and  _558
REMARK  224  A    between atoms: _561  and  _563
REMARK  225  A    between atoms: _563  and  _564
REMARK  226  A    between atoms: _563  and  _566
REMARK  227  A    between atoms: _566  and  _567
REMARK  228  A    between atoms: _572  and  _573
REMARK  229  A    between atoms: _575  and  _577
REMARK  230  A    between atoms: _577  and  _578
REMARK  231  A    between atoms: _577  and  _580
REMARK  232  A    between atoms: _580  and  _581
REMARK  233  A    between atoms: _586  and  _588
REMARK  234  A    between atoms: _588  and  _589
REMARK  235  A    between atoms: _588  and  _591
REMARK  236  A    between atoms: _591  and  _592
REMARK  237  A    between atoms: _595  and  _597
REMARK  238  A    between atoms: _597  and  _598
REMARK  239  A    between atoms: _597  and  _600
REMARK  240  A    between atoms: _602  and  _604
REMARK  241  A    between atoms: _604  and  _605
REMARK  242  A    between atoms: _604  and  _607
REMARK  243  A    between atoms: _609  and  _611
REMARK  244  A    between atoms: _611  and  _612
REMARK  245  A    between atoms: _611  and  _614
REMARK  246  A    between atoms: _614  and  _615
REMARK  247  A    between atoms: _620  and  _622
REMARK  248  A    between atoms: _622  and  _623
REMARK  249  A    between atoms: _622  and  _625
REMARK  250  A    between atoms: _625  and  _626
REMARK  251  A    between atoms: _626  and  _627
REMARK  252  A    between atoms: _630  and  _632
REMARK  253  A    between atoms: _632  and  _633
REMARK  254  A    between atoms: _632  and  _635
REMARK  255  A    between atoms: _635  and  _636
REMARK  256  A    between atoms: _639  and  _641
REMARK  257  A    between atoms: _641  and  _642
REMARK  258  A    between atoms: _641  and  _644
REMARK  259  A    between atoms: _647  and  _649
REMARK  260  A    between atoms: _649  and  _650
REMARK  261  A    between atoms: _649  and  _652
REMARK  262  A    between atoms: _652  and  _653
REMARK  263  A    between atoms: _656  and  _658
REMARK  264  A    between atoms: _658  and  _659
REMARK  265  A    between atoms: _658  and  _661
REMARK  266  A    between atoms: _661  and  _662
REMARK  267  A    between atoms: _667  and  _668
REMARK  268  A    between atoms: _670  and  _672
REMARK  269  A    between atoms: _672  and  _673
REMARK  270  A    between atoms: _672  and  _675
REMARK  271  A    between atoms: _675  and  _676
REMARK  272  A    between atoms: _678  and  _680
REMARK  273  A    between atoms: _680  and  _681
REMARK  274  A    between atoms: _680  and  _683
REMARK  275  A    between atoms: _686  and  _688
REMARK  276  A    between atoms: _688  and  _689
REMARK  277  A    between atoms: _691  and  _693
REMARK  278  A    between atoms: _693  and  _694
REMARK  279  A    between atoms: _697  and  _699
REMARK  280  A    between atoms: _699  and  _700
REMARK  281  A    between atoms: _699  and  _702
REMARK  282  A    between atoms: _702  and  _703
REMARK  283  A    between atoms: _706  and  _708
REMARK  284  A    between atoms: _708  and  _709
REMARK  285  A    between atoms: _708  and  _711
REMARK  286  A    between atoms: _711  and  _712
REMARK  287  A    between atoms: _714  and  _716
REMARK  288  A    between atoms: _716  and  _717
REMARK  289  A    between atoms: _720  and  _722
REMARK  290  A    between atoms: _722  and  _723
REMARK  291  A    between atoms: _722  and  _725
REMARK  292  A    between atoms: _725  and  _726
REMARK  293  A    between atoms: _731  and  _733
REMARK  294  A    between atoms: _733  and  _734
REMARK  295  A    between atoms: _733  and  _736
REMARK  296  A    between atoms: _736  and  _737
REMARK                            x       y       z     vdW  Elec       q    Type
REMARK                         _______ _______ _______ _____ _____    ______ ____
ROOT
ATOM      1  C   GLY A   2     -28.994  38.021 -70.830  0.00  0.00    +0.243 C 
ATOM      2  N   ARG A   3     -29.108  37.036 -69.967  0.00  0.00    -0.298 N 
ATOM      3  H   ARG A   3     -29.217  37.244 -68.954  0.00  0.00    +0.150 HD
ATOM      4  O   GLY A   2     -28.945  37.837 -72.016  0.00  0.00    -0.273 OA
ENDROOT
BRANCH   1   5
ATOM      5  CA  GLY A   2     -29.069  39.433 -70.279  0.00  0.00    +0.176 C 
BRANCH   5   8
ATOM      6  C   ILE A   1     -27.192  40.648 -71.287  0.00  0.00    +0.238 C 
ATOM      7  O   ILE A   1     -26.366  40.003 -70.709  0.00  0.00    -0.274 OA
ATOM      8  N   GLY A   2     -28.485  40.476 -71.095  0.00  0.00    -0.296 N 
ATOM      9  H   GLY A   2     -29.134  41.139 -71.565  0.00  0.00    +0.150 HD
BRANCH   6  10
ATOM     10  CA  ILE A   1     -26.775  41.776 -72.245  0.00  0.00    +0.145 C 
BRANCH  10  11
ATOM     11  N   ILE A   1     -25.365  42.047 -72.033  0.00  0.00    -0.238 NA
ATOM     12  H   ILE A   1     -24.725  41.242 -71.880  0.00  0.00    +0.142 HD
ENDBRANCH  10  11
BRANCH  10  13
ATOM     13  CB  ILE A   1     -27.137  41.407 -73.717  0.00  0.00    +0.025 C 
ATOM     14  CG2 ILE A   1     -26.837  42.501 -74.684  0.00  0.00    +0.002 C 
BRANCH  13  15
ATOM     15  CG1 ILE A   1     -26.433  40.151 -74.151  0.00  0.00    +0.002 C 
ATOM     16  CD1 ILE A   1     -26.861  39.693 -75.456  0.00  0.00    +0.000 C 
ENDBRANCH  13  15
ENDBRANCH  10  13
ENDBRANCH   6  10
ENDBRANCH   5   8
ENDBRANCH   1   5
BRANCH   2  17
ATOM     17  CA  ARG A   3     -29.083  35.667 -70.421  0.00  0.00    +0.137 C 
BRANCH  17  18
ATOM     18  C   ARG A   3     -30.236  35.371 -71.367  0.00  0.00    +0.227 C 
ATOM     19  O   ARG A   3     -30.035  34.801 -72.414  0.00  0.00    -0.286 OA
ENDBRANCH  17  18
BRANCH  17  20
ATOM     20  CB  ARG A   3     -29.111  34.733 -69.220  0.00  0.00    +0.031 C 
BRANCH  20  21
ATOM     21  CG  ARG A   3     -29.403  33.315 -69.537  0.00  0.00    +0.045 C 
BRANCH  21  22
ATOM     22  CD  ARG A   3     -29.192  32.383 -68.356  0.00  0.00    +0.174 C 
BRANCH  22  23
ATOM     23  NE  ARG A   3     -27.805  32.308 -67.972  0.00  0.00    -0.265 N 
ATOM     24  CZ  ARG A   3     -27.274  31.449 -67.123  0.00  0.00    +0.342 C 
ATOM     25  NH2 ARG A   3     -28.011  30.810 -66.267  0.00  0.00    -0.292 N 
ATOM     26 HH21 ARG A   3     -27.574  30.137 -65.605  0.00  0.00    +0.255 HD
ATOM     27 HH22 ARG A   3     -29.038  30.971 -66.243  0.00  0.00    +0.255 HD
ATOM     28  NH1 ARG A   3     -25.985  31.473 -66.929  0.00  0.00    -0.292 N 
ATOM     29 HH11 ARG A   3     -25.547  30.804 -66.264  0.00  0.00    +0.255 HD
ATOM     30 HH12 ARG A   3     -25.395  32.161 -67.439  0.00  0.00    +0.255 HD
ATOM     31  HE  ARG A   3     -27.160  32.998 -68.406  0.00  0.00    +0.259 HD
ENDBRANCH  22  23
ENDBRANCH  21  22
ENDBRANCH  20  21
ENDBRANCH  17  20
ENDBRANCH   2  17
TORSDOF 12
REMARK  Name = ../refined-set-2016/2wva/2wva_pocket.pdb
REMARK  296 active torsions:
REMARK  status: ('A' for Active; 'I' for Inactive)
REMARK    1  A    between atoms: _1  and  _3
REMARK    2  A    between atoms: _3  and  _4
REMARK    3  A    between atoms: _3  and  _6
REMARK    4  A    between atoms: _6  and  _7
REMARK    5  A    between atoms: _10  and  _12
REMARK    6  A    between atoms: _12  and  _13
REMARK    7  A    between atoms: _12  and  _15
REMARK    8  A    between atoms: _15  and  _16
REMARK    9  A    between atoms: _22  and  _24
REMARK   10  A    between atoms: _24  and  _25
REMARK   11  A    between atoms: _24  and  _27
REMARK   12  A    between atoms: _27  and  _28
REMARK   13  A    between atoms: _31  and  _33
REMARK   14  A    between atoms: _33  and  _34
REMARK   15  A    between atoms: _33  and  _36
REMARK   16  A    between atoms: _36  and  _37
REMARK   17  A    between atoms: _42  and  _43
REMARK   18  A    between atoms: _45  and  _47
REMARK   19  A    between atoms: _47  and  _48
REMARK   20  A    between atoms: _47  and  _50
REMARK   21  A    between atoms: _50  and  _51
REMARK   22  A    between atoms: _56  and  _58
REMARK   23  A    between atoms: _58  and  _59
REMARK   24  A    between atoms: _58  and  _61
REMARK   25  A    between atoms: _61  and  _62
REMARK   26  A    between atoms: _62  and  _63
REMARK   27  A    between atoms: _66  and  _68
REMARK   28  A    between atoms: _68  and  _69
REMARK   29  A    between atoms: _68  and  _71
REMARK   30  A    between atoms: _71  and  _72
REMARK   31  A    between atoms: _75  and  _77
REMARK   32  A    between atoms: _77  and  _78
REMARK   33  A    between atoms: _80  and  _82
REMARK   34  A    between atoms: _82  and  _83
REMARK   35  A    between atoms: _82  and  _85
REMARK   36  A    between atoms: _85  and  _86
REMARK   37  A    between atoms: _89  and  _91
REMARK   38  A    between atoms: _91  and  _92
REMARK   39  A    between atoms: _91  and  _94
REMARK   40  A    between atoms: _94  and  _95
REMARK   41  A    between atoms: _97  and  _99
REMARK   42  A    between atoms: _99  and  _100
REMARK   43  A    between atoms: _99  and  _102
REMARK   44  A    between atoms: _102  and  _103
REMARK   45  A    between atoms: _113  and  _115
REMARK   46  A    between atoms: _115  and  _116
REMARK   47  A    between atoms: _115  and  _118
REMARK   48  A    between atoms: _118  and  _119
REMARK   49  A    between atoms: _125  and  _127
REMARK   50  A    between atoms: _127  and  _128
REMARK   51  A    between atoms: _127  and  _130
REMARK   52  A    between atoms: _130  and  _131
REMARK   53  A    between atoms: _136  and  _138
REMARK   54  A    between atoms: _138  and  _139
REMARK   55  A    between atoms: _138  and  _141
REMARK   56  A    between atoms: _141  and  _142
REMARK   57  A    between atoms: _142  and  _143
REMARK   58  A    between atoms: _146  and  _148
REMARK   59  A    between atoms: _148  and  _149
REMARK   60  A    between atoms: _148  and  _151
REMARK   61  A    between atoms: _151  and  _152
REMARK   62  A    between atoms: _162  and  _164
REMARK   63  A    between atoms: _164  and  _165
REMARK   64  A    between atoms: _167  and  _169
REMARK   65  A    between atoms: _169  and  _170
REMARK   66  A    between atoms: _169  and  _172
REMARK   67  A    between atoms: _172  and  _173
REMARK   68  A    between atoms: _178  and  _180
REMARK   69  A    between atoms: _180  and  _181
REMARK   70  A    between atoms: _180  and  _183
REMARK   71  A    between atoms: _183  and  _184
REMARK   72  A    between atoms: _187  and  _189
REMARK   73  A    between atoms: _189  and  _190
REMARK   74  A    between atoms: _192  and  _194
REMARK   75  A    between atoms: _194  and  _195
REMARK   76  A    between atoms: _194  and  _197
REMARK   77  A    between atoms: _197  and  _198
REMARK   78  A    between atoms: _208  and  _210
REMARK   79  A    between atoms: _210  and  _211
REMARK   80  A    between atoms: _210  and  _213
REMARK   81  A    between atoms: _213  and  _214
REMARK   82  A    between atoms: _216  and  _218
REMARK   83  A    between atoms: _218  and  _219
REMARK   84  A    between atoms: _218  and  _221
REMARK   85  A    between atoms: _221  and  _222
REMARK   86  A    between atoms: _222  and  _223
REMARK   87  A    between atoms: _225  and  _227
REMARK   88  A    between atoms: _227  and  _228
REMARK   89  A    between atoms: _227  and  _230
REMARK   90  A    between atoms: _233  and  _235
REMARK   91  A    between atoms: _235  and  _236
REMARK   92  A    between atoms: _238  and  _240
REMARK   93  A    between atoms: _240  and  _241
REMARK   94  A    between atoms: _240  and  _243
REMARK   95  A    between atoms: _243  and  _244
REMARK   96  A    between atoms: _247  and  _249
REMARK   97  A    between atoms: _249  and  _250
REMARK   98  A    between atoms: _252  and  _254
REMARK   99  A    between atoms: _254  and  _255
REMARK  100  A    between atoms: _254  and  _257
REMARK  101  A    between atoms: _257  and  _258
REMARK  102  A    between atoms: _260  and  _262
REMARK  103  A    between atoms: _262  and  _263
REMARK  104  A    between atoms: _262  and  _265
REMARK  105  A    between atoms: _265  and  _266
REMARK  106  A    between atoms: _272  and  _274
REMARK  107  A    between atoms: _274  and  _275
REMARK  108  A    between atoms: _274  and  _277
REMARK  109  A    between atoms: _277  and  _278
REMARK  110  A    between atoms: _278  and  _279
REMARK  111  A    between atoms: _284  and  _286
REMARK  112  A    between atoms: _286  and  _287
REMARK  113  A    between atoms: _286  and  _289
REMARK  114  A    between atoms: _289  and  _290
REMARK  115  A    between atoms: _293  and  _295
REMARK  116  A    between atoms: _295  and  _296
REMARK  117  A    between atoms: _295  and  _298
REMARK  118  A    between atoms: _298  and  _299
REMARK  119  A    between atoms: _302  and  _304
REMARK  120  A    between atoms: _304  and  _305
REMARK  121  A    between atoms: _304  and  _307
REMARK  122  A    between atoms: _307  and  _308
REMARK  123  A    between atoms: _311  and  _313
REMARK  124  A    between atoms: _313  and  _314
REMARK  125  A    between atoms: _313  and  _316
REMARK  126  A    between atoms: _316  and  _317
REMARK  127  A    between atoms: _322  and  _324
REMARK  128  A    between atoms: _324  and  _325
REMARK  129  A    between atoms: _324  and  _327
REMARK  130  A    between atoms: _327  and  _328
REMARK  131  A    between atoms: _333  and  _335
REMARK  132  A    between atoms: _335  and  _336
REMARK  133  A    between atoms: _335  and  _338
REMARK  134  A    between atoms: _338  and  _339
REMARK  135  A    between atoms: _344  and  _345
REMARK  136  A    between atoms: _347  and  _349
REMARK  137  A    between atoms: _349  and  _350
REMARK  138  A    between atoms: _352  and  _354
REMARK  139  A    between atoms: _354  and  _355
REMARK  140  A    between atoms: _354  and  _357
REMARK  141  A    between atoms: _357  and  _358
REMARK  142  A    between atoms: _363  and  _364
REMARK  143  A    between atoms: _366  and  _368
REMARK  144  A    between atoms: _368  and  _369
REMARK  145  A    between atoms: _368  and  _371
REMARK  146  A    between atoms: _371  and  _372
REMARK  147  A    between atoms: _375  and  _377
REMARK  148  A    between atoms: _377  and  _378
REMARK  149  A    between atoms: _377  and  _380
REMARK  150  A    between atoms: _380  and  _381
REMARK  151  A    between atoms: _384  and  _386
REMARK  152  A    between atoms: _386  and  _387
REMARK  153  A    between atoms: _386  and  _389
REMARK  154  A    between atoms: _389  and  _390
REMARK  155  A    between atoms: _390  and  _391
REMARK  156  A    between atoms: _394  and  _396
REMARK  157  A    between atoms: _396  and  _397
REMARK  158  A    between atoms: _396  and  _399
REMARK  159  A    between atoms: _402  and  _404
REMARK  160  A    between atoms: _404  and  _405
REMARK  161  A    between atoms: _404  and  _407
REMARK  162  A    between atoms: _407  and  _408
REMARK  163  A    between atoms: _408  and  _409
REMARK  164  A    between atoms: _411  and  _413
REMARK  165  A    between atoms: _413  and  _414
REMARK  166  A    between atoms: _413  and  _416
REMARK  167  A    between atoms: _416  and  _417
REMARK  168  A    between atoms: _420  and  _422
REMARK  169  A    between atoms: _422  and  _423
REMARK  170  A    between atoms: _422  and  _425
REMARK  171  A    between atoms: _425  and  _426
REMARK  172  A    between atoms: _431  and  _432
REMARK  173  A    between atoms: _434  and  _436
REMARK  174  A    between atoms: _436  and  _437
REMARK  175  A    between atoms: _436  and  _439
REMARK  176  A    between atoms: _439  and  _440
REMARK  177  A    between atoms: _445  and  _447
REMARK  178  A    between atoms: _447  and  _448
REMARK  179  A    between atoms: _447  and  _450
REMARK  180  A    between atoms: _450  and  _451
REMARK  181  A    between atoms: _454  and  _456
REMARK  182  A    between atoms: _456  and  _457
REMARK  183  A    between atoms: _456  and  _459
REMARK  184  A    between atoms: _459  and  _460
REMARK  185  A    between atoms: _465  and  _466
REMARK  186  A    between atoms: _468  and  _470
REMARK  187  A    between atoms: _470  and  _471
REMARK  188  A    between atoms: _470  and  _473
REMARK  189  A    between atoms: _473  and  _474
REMARK  190  A    between atoms: _477  and  _479
REMARK  191  A    between atoms: _479  and  _480
REMARK  192  A    between atoms: _482  and  _484
REMARK  193  A    between atoms: _484  and  _485
REMARK  194  A    between atoms: _484  and  _487
REMARK  195  A    between atoms: _487  and  _488
REMARK  196  A    between atoms: _488  and  _489
REMARK  197  A    between atoms: _489  and  _490
REMARK  198  A    between atoms: _499  and  _501
REMARK  199  A    between atoms: _501  and  _502
REMARK  200  A    between atoms: _501  and  _504
REMARK  201  A    between atoms: _504  and  _505
REMARK  202  A    between atoms: _508  and  _510
REMARK  203  A    between atoms: _510  and  _511
REMARK  204  A    between atoms: _510  and  _513
REMARK  205  A    between atoms: _515  and  _517
REMARK  206  A    between atoms: _517  and  _518
REMARK  207  A    between atoms: _517  and  _520
REMARK  208  A    between atoms: _520  and  _521
REMARK  209  A    between atoms: _524  and  _526
REMARK  210  A    between atoms: _526  and  _527
REMARK  211  A    between atoms: _526  and  _529
REMARK  212  A    between atoms: _529  and  _530
REMARK  213  A    between atoms: _533  and  _535
REMARK  214  A    between atoms: _535  and  _536
REMARK  215  A    between atoms: _535  and  _538
REMARK  216  A    between atoms: _541  and  _543
REMARK  217  A    between atoms: _543  and  _544
REMARK  218  A    between atoms: _547  and  _549
REMARK  219  A    between atoms: _549  and  _550
REMARK  220  A    between atoms: _552  and  _554
REMARK  221  A    between atoms: _554  and  _555
REMARK  222  A    between atoms: _554  and  _557
REMARK  223  A    between atoms: _557  and  _558
REMARK  224  A    between atoms: _561  and  _563
REMARK  225  A    between atoms: _563  and  _564
REMARK  226  A    between atoms: _563  and  _566
REMARK  227  A    between atoms: _566  and  _567
REMARK  228  A    between atoms: _572  and  _573
REMARK  229  A    between atoms: _575  and  _577
REMARK  230  A    between atoms: _577  and  _578
REMARK  231  A    between atoms: _577  and  _580
REMARK  232  A    between atoms: _580  and  _581
REMARK  233  A    between atoms: _586  and  _588
REMARK  234  A    between atoms: _588  and  _589
REMARK  235  A    between atoms: _588  and  _591
REMARK  236  A    between atoms: _591  and  _592
REMARK  237  A    between atoms: _595  and  _597
REMARK  238  A    between atoms: _597  and  _598
REMARK  239  A    between atoms: _597  and  _600
REMARK  240  A    between atoms: _602  and  _604
REMARK  241  A    between atoms: _604  and  _605
REMARK  242  A    between atoms: _604  and  _607
REMARK  243  A    between atoms: _609  and  _611
REMARK  244  A    between atoms: _611  and  _612
REMARK  245  A    between atoms: _611  and  _614
REMARK  246  A    between atoms: _614  and  _615
REMARK  247  A    between atoms: _620  and  _622
REMARK  248  A    between atoms: _622  and  _623
REMARK  249  A    between atoms: _622  and  _625
REMARK  250  A    between atoms: _625  and  _626
REMARK  251  A    between atoms: _626  and  _627
REMARK  252  A    between atoms: _630  and  _632
REMARK  253  A    between atoms: _632  and  _633
REMARK  254  A    between atoms: _632  and  _635
REMARK  255  A    between atoms: _635  and  _636
REMARK  256  A    between atoms: _639  and  _641
REMARK  257  A    between atoms: _641  and  _642
REMARK  258  A    between atoms: _641  and  _644
REMARK  259  A    between atoms: _647  and  _649
REMARK  260  A    between atoms: _649  and  _650
REMARK  261  A    between atoms: _649  and  _652
REMARK  262  A    between atoms: _652  and  _653
REMARK  263  A    between atoms: _656  and  _658
REMARK  264  A    between atoms: _658  and  _659
REMARK  265  A    between atoms: _658  and  _661
REMARK  266  A    between atoms: _661  and  _662
REMARK  267  A    between atoms: _667  and  _668
REMARK  268  A    between atoms: _670  and  _672
REMARK  269  A    between atoms: _672  and  _673
REMARK  270  A    between atoms: _672  and  _675
REMARK  271  A    between atoms: _675  and  _676
REMARK  272  A    between atoms: _678  and  _680
REMARK  273  A    between atoms: _680  and  _681
REMARK  274  A    between atoms: _680  and  _683
REMARK  275  A    between atoms: _686  and  _688
REMARK  276  A    between atoms: _688  and  _689
REMARK  277  A    between atoms: _691  and  _693
REMARK  278  A    between atoms: _693  and  _694
REMARK  279  A    between atoms: _697  and  _699
REMARK  280  A    between atoms: _699  and  _700
REMARK  281  A    between atoms: _699  and  _702
REMARK  282  A    between atoms: _702  and  _703
REMARK  283  A    between atoms: _706  and  _708
REMARK  284  A    between atoms: _708  and  _709
REMARK  285  A    between atoms: _708  and  _711
REMARK  286  A    between atoms: _711  and  _712
REMARK  287  A    between atoms: _714  and  _716
REMARK  288  A    between atoms: _716  and  _717
REMARK  289  A    between atoms: _720  and  _722
REMARK  290  A    between atoms: _722  and  _723
REMARK  291  A    between atoms: _722  and  _725
REMARK  292  A    between atoms: _725  and  _726
REMARK  293  A    between atoms: _731  and  _733
REMARK  294  A    between atoms: _733  and  _734
REMARK  295  A    between atoms: _733  and  _736
REMARK  296  A    between atoms: _736  and  _737
REMARK                            x       y       z     vdW  Elec       q    Type
REMARK                         _______ _______ _______ _____ _____    ______ ____
ROOT
ATOM      1  CA  CYS A   2     -31.162  35.969 -77.392  0.00  0.00    +0.160 C 
ENDROOT
BRANCH   1   4
ATOM      2  C   ASP A   1     -31.155  37.577 -75.563  0.00  0.00    +0.239 C 
ATOM      3  O   ASP A   1     -30.012  37.880 -75.769  0.00  0.00    -0.274 OA
ATOM      4  N   CYS A   2     -31.782  36.651 -76.266  0.00  0.00    -0.296 N 
ATOM      5  H   CYS A   2     -32.757  36.400 -76.005  0.00  0.00    +0.150 HD
BRANCH   2   6
ATOM      6  CA  ASP A   1     -31.944  38.225 -74.447  0.00  0.00    +0.156 C 
BRANCH   6   7
ATOM      7  N   ASP A   1     -31.901  37.378 -73.278  0.00  0.00    -0.238 NA
ATOM      8  H   ASP A   1     -31.206  37.581 -72.531  0.00  0.00    +0.142 HD
ENDBRANCH   6   7
BRANCH   6   9
ATOM      9  CB  ASP A   1     -31.339  39.567 -74.074  0.00  0.00    +0.140 C 
BRANCH   9  10
ATOM     10  CG  ASP A   1     -31.435  40.576 -75.158  0.00  0.00    +0.367 C 
ATOM     11  OD2 ASP A   1     -30.495  41.329 -75.321  0.00  0.00    -0.246 OA
ATOM     12  OD1 ASP A   1     -32.448  40.642 -75.832  0.00  0.00    -0.246 OA
ENDBRANCH   9  10
ENDBRANCH   6   9
ENDBRANCH   2   6
ENDBRANCH   1   4
BRANCH   1  13
ATOM     13  C   CYS A   2     -32.115  35.980 -78.580  0.00  0.00    +0.242 C 
ATOM     14  O   CYS A   2     -33.249  36.431 -78.461  0.00  0.00    -0.273 OA
ATOM     15  N   THR A   3     -31.656  35.483 -79.722  0.00  0.00    -0.296 N 
ATOM     16  H   THR A   3     -30.679  35.128 -79.764  0.00  0.00    +0.150 HD
BRANCH  15  17
ATOM     17  CA  THR A   3     -32.484  35.422 -80.918  0.00  0.00    +0.164 C 
BRANCH  17  18
ATOM     18  C   THR A   3     -33.691  34.484 -80.741  0.00  0.00    +0.229 C 
ATOM     19  O   THR A   3     -33.645  33.529 -79.968  0.00  0.00    -0.286 OA
ENDBRANCH  17  18
BRANCH  17  20
ATOM     20  CB  THR A   3     -31.667  34.952 -82.141  0.00  0.00    +0.136 C 
ATOM     21  CG2 THR A   3     -30.502  35.900 -82.419  0.00  0.00    +0.034 C 
BRANCH  20  22
ATOM     22  OG1 THR A   3     -31.167  33.630 -81.901  0.00  0.00    -0.382 OA
ATOM     23  HG1 THR A   3     -30.587  33.638 -81.099  0.00  0.00    +0.210 HD
ENDBRANCH  20  22
ENDBRANCH  17  20
ENDBRANCH  15  17
ENDBRANCH   1  13
BRANCH   1  24
ATOM     24  CB  CYS A   2     -30.816  34.534 -77.005  0.00  0.00    +0.098 C 
ATOM     25  SG  CYS A   2     -32.254  33.551 -76.541  0.00  0.00    -0.080 S 
ENDBRANCH   1  24
TORSDOF 11
REMARK  Name = ../refined-set-2016/2wva/2wva_pocket.pdb
REMARK  296 active torsions:
REMARK  status: ('A' for Active; 'I' for Inactive)
REMARK    1  A    between atoms: _1  and  _3
REMARK    2  A    between atoms: _3  and  _4
REMARK    3  A    between atoms: _3  and  _6
REMARK    4  A    between atoms: _6  and  _7
REMARK    5  A    between atoms: _10  and  _12
REMARK    6  A    between atoms: _12  and  _13
REMARK    7  A    between atoms: _12  and  _15
REMARK    8  A    between atoms: _15  and  _16
REMARK    9  A    between atoms: _22  and  _24
REMARK   10  A    between atoms: _24  and  _25
REMARK   11  A    between atoms: _24  and  _27
REMARK   12  A    between atoms: _27  and  _28
REMARK   13  A    between atoms: _31  and  _33
REMARK   14  A    between atoms: _33  and  _34
REMARK   15  A    between atoms: _33  and  _36
REMARK   16  A    between atoms: _36  and  _37
REMARK   17  A    between atoms: _42  and  _43
REMARK   18  A    between atoms: _45  and  _47
REMARK   19  A    between atoms: _47  and  _48
REMARK   20  A    between atoms: _47  and  _50
REMARK   21  A    between atoms: _50  and  _51
REMARK   22  A    between atoms: _56  and  _58
REMARK   23  A    between atoms: _58  and  _59
REMARK   24  A    between atoms: _58  and  _61
REMARK   25  A    between atoms: _61  and  _62
REMARK   26  A    between atoms: _62  and  _63
REMARK   27  A    between atoms: _66  and  _68
REMARK   28  A    between atoms: _68  and  _69
REMARK   29  A    between atoms: _68  and  _71
REMARK   30  A    between atoms: _71  and  _72
REMARK   31  A    between atoms: _75  and  _77
REMARK   32  A    between atoms: _77  and  _78
REMARK   33  A    between atoms: _80  and  _82
REMARK   34  A    between atoms: _82  and  _83
REMARK   35  A    between atoms: _82  and  _85
REMARK   36  A    between atoms: _85  and  _86
REMARK   37  A    between atoms: _89  and  _91
REMARK   38  A    between atoms: _91  and  _92
REMARK   39  A    between atoms: _91  and  _94
REMARK   40  A    between atoms: _94  and  _95
REMARK   41  A    between atoms: _97  and  _99
REMARK   42  A    between atoms: _99  and  _100
REMARK   43  A    between atoms: _99  and  _102
REMARK   44  A    between atoms: _102  and  _103
REMARK   45  A    between atoms: _113  and  _115
REMARK   46  A    between atoms: _115  and  _116
REMARK   47  A    between atoms: _115  and  _118
REMARK   48  A    between atoms: _118  and  _119
REMARK   49  A    between atoms: _125  and  _127
REMARK   50  A    between atoms: _127  and  _128
REMARK   51  A    between atoms: _127  and  _130
REMARK   52  A    between atoms: _130  and  _131
REMARK   53  A    between atoms: _136  and  _138
REMARK   54  A    between atoms: _138  and  _139
REMARK   55  A    between atoms: _138  and  _141
REMARK   56  A    between atoms: _141  and  _142
REMARK   57  A    between atoms: _142  and  _143
REMARK   58  A    between atoms: _146  and  _148
REMARK   59  A    between atoms: _148  and  _149
REMARK   60  A    between atoms: _148  and  _151
REMARK   61  A    between atoms: _151  and  _152
REMARK   62  A    between atoms: _162  and  _164
REMARK   63  A    between atoms: _164  and  _165
REMARK   64  A    between atoms: _167  and  _169
REMARK   65  A    between atoms: _169  and  _170
REMARK   66  A    between atoms: _169  and  _172
REMARK   67  A    between atoms: _172  and  _173
REMARK   68  A    between atoms: _178  and  _180
REMARK   69  A    between atoms: _180  and  _181
REMARK   70  A    between atoms: _180  and  _183
REMARK   71  A    between atoms: _183  and  _184
REMARK   72  A    between atoms: _187  and  _189
REMARK   73  A    between atoms: _189  and  _190
REMARK   74  A    between atoms: _192  and  _194
REMARK   75  A    between atoms: _194  and  _195
REMARK   76  A    between atoms: _194  and  _197
REMARK   77  A    between atoms: _197  and  _198
REMARK   78  A    between atoms: _208  and  _210
REMARK   79  A    between atoms: _210  and  _211
REMARK   80  A    between atoms: _210  and  _213
REMARK   81  A    between atoms: _213  and  _214
REMARK   82  A    between atoms: _216  and  _218
REMARK   83  A    between atoms: _218  and  _219
REMARK   84  A    between atoms: _218  and  _221
REMARK   85  A    between atoms: _221  and  _222
REMARK   86  A    between atoms: _222  and  _223
REMARK   87  A    between atoms: _225  and  _227
REMARK   88  A    between atoms: _227  and  _228
REMARK   89  A    between atoms: _227  and  _230
REMARK   90  A    between atoms: _233  and  _235
REMARK   91  A    between atoms: _235  and  _236
REMARK   92  A    between atoms: _238  and  _240
REMARK   93  A    between atoms: _240  and  _241
REMARK   94  A    between atoms: _240  and  _243
REMARK   95  A    between atoms: _243  and  _244
REMARK   96  A    between atoms: _247  and  _249
REMARK   97  A    between atoms: _249  and  _250
REMARK   98  A    between atoms: _252  and  _254
REMARK   99  A    between atoms: _254  and  _255
REMARK  100  A    between atoms: _254  and  _257
REMARK  101  A    between atoms: _257  and  _258
REMARK  102  A    between atoms: _260  and  _262
REMARK  103  A    between atoms: _262  and  _263
REMARK  104  A    between atoms: _262  and  _265
REMARK  105  A    between atoms: _265  and  _266
REMARK  106  A    between atoms: _272  and  _274
REMARK  107  A    between atoms: _274  and  _275
REMARK  108  A    between atoms: _274  and  _277
REMARK  109  A    between atoms: _277  and  _278
REMARK  110  A    between atoms: _278  and  _279
REMARK  111  A    between atoms: _284  and  _286
REMARK  112  A    between atoms: _286  and  _287
REMARK  113  A    between atoms: _286  and  _289
REMARK  114  A    between atoms: _289  and  _290
REMARK  115  A    between atoms: _293  and  _295
REMARK  116  A    between atoms: _295  and  _296
REMARK  117  A    between atoms: _295  and  _298
REMARK  118  A    between atoms: _298  and  _299
REMARK  119  A    between atoms: _302  and  _304
REMARK  120  A    between atoms: _304  and  _305
REMARK  121  A    between atoms: _304  and  _307
REMARK  122  A    between atoms: _307  and  _308
REMARK  123  A    between atoms: _311  and  _313
REMARK  124  A    between atoms: _313  and  _314
REMARK  125  A    between atoms: _313  and  _316
REMARK  126  A    between atoms: _316  and  _317
REMARK  127  A    between atoms: _322  and  _324
REMARK  128  A    between atoms: _324  and  _325
REMARK  129  A    between atoms: _324  and  _327
REMARK  130  A    between atoms: _327  and  _328
REMARK  131  A    between atoms: _333  and  _335
REMARK  132  A    between atoms: _335  and  _336
REMARK  133  A    between atoms: _335  and  _338
REMARK  134  A    between atoms: _338  and  _339
REMARK  135  A    between atoms: _344  and  _345
REMARK  136  A    between atoms: _347  and  _349
REMARK  137  A    between atoms: _349  and  _350
REMARK  138  A    between atoms: _352  and  _354
REMARK  139  A    between atoms: _354  and  _355
REMARK  140  A    between atoms: _354  and  _357
REMARK  141  A    between atoms: _357  and  _358
REMARK  142  A    between atoms: _363  and  _364
REMARK  143  A    between atoms: _366  and  _368
REMARK  144  A    between atoms: _368  and  _369
REMARK  145  A    between atoms: _368  and  _371
REMARK  146  A    between atoms: _371  and  _372
REMARK  147  A    between atoms: _375  and  _377
REMARK  148  A    between atoms: _377  and  _378
REMARK  149  A    between atoms: _377  and  _380
REMARK  150  A    between atoms: _380  and  _381
REMARK  151  A    between atoms: _384  and  _386
REMARK  152  A    between atoms: _386  and  _387
REMARK  153  A    between atoms: _386  and  _389
REMARK  154  A    between atoms: _389  and  _390
REMARK  155  A    between atoms: _390  and  _391
REMARK  156  A    between atoms: _394  and  _396
REMARK  157  A    between atoms: _396  and  _397
REMARK  158  A    between atoms: _396  and  _399
REMARK  159  A    between atoms: _402  and  _404
REMARK  160  A    between atoms: _404  and  _405
REMARK  161  A    between atoms: _404  and  _407
REMARK  162  A    between atoms: _407  and  _408
REMARK  163  A    between atoms: _408  and  _409
REMARK  164  A    between atoms: _411  and  _413
REMARK  165  A    between atoms: _413  and  _414
REMARK  166  A    between atoms: _413  and  _416
REMARK  167  A    between atoms: _416  and  _417
REMARK  168  A    between atoms: _420  and  _422
REMARK  169  A    between atoms: _422  and  _423
REMARK  170  A    between atoms: _422  and  _425
REMARK  171  A    between atoms: _425  and  _426
REMARK  172  A    between atoms: _431  and  _432
REMARK  173  A    between atoms: _434  and  _436
REMARK  174  A    between atoms: _436  and  _437
REMARK  175  A    between atoms: _436  and  _439
REMARK  176  A    between atoms: _439  and  _440
REMARK  177  A    between atoms: _445  and  _447
REMARK  178  A    between atoms: _447  and  _448
REMARK  179  A    between atoms: _447  and  _450
REMARK  180  A    between atoms: _450  and  _451
REMARK  181  A    between atoms: _454  and  _456
REMARK  182  A    between atoms: _456  and  _457
REMARK  183  A    between atoms: _456  and  _459
REMARK  184  A    between atoms: _459  and  _460
REMARK  185  A    between atoms: _465  and  _466
REMARK  186  A    between atoms: _468  and  _470
REMARK  187  A    between atoms: _470  and  _471
REMARK  188  A    between atoms: _470  and  _473
REMARK  189  A    between atoms: _473  and  _474
REMARK  190  A    between atoms: _477  and  _479
REMARK  191  A    between atoms: _479  and  _480
REMARK  192  A    between atoms: _482  and  _484
REMARK  193  A    between atoms: _484  and  _485
REMARK  194  A    between atoms: _484  and  _487
REMARK  195  A    between atoms: _487  and  _488
REMARK  196  A    between atoms: _488  and  _489
REMARK  197  A    between atoms: _489  and  _490
REMARK  198  A    between atoms: _499  and  _501
REMARK  199  A    between atoms: _501  and  _502
REMARK  200  A    between atoms: _501  and  _504
REMARK  201  A    between atoms: _504  and  _505
REMARK  202  A    between atoms: _508  and  _510
REMARK  203  A    between atoms: _510  and  _511
REMARK  204  A    between atoms: _510  and  _513
REMARK  205  A    between atoms: _515  and  _517
REMARK  206  A    between atoms: _517  and  _518
REMARK  207  A    between atoms: _517  and  _520
REMARK  208  A    between atoms: _520  and  _521
REMARK  209  A    between atoms: _524  and  _526
REMARK  210  A    between atoms: _526  and  _527
REMARK  211  A    between atoms: _526  and  _529
REMARK  212  A    between atoms: _529  and  _530
REMARK  213  A    between atoms: _533  and  _535
REMARK  214  A    between atoms: _535  and  _536
REMARK  215  A    between atoms: _535  and  _538
REMARK  216  A    between atoms: _541  and  _543
REMARK  217  A    between atoms: _543  and  _544
REMARK  218  A    between atoms: _547  and  _549
REMARK  219  A    between atoms: _549  and  _550
REMARK  220  A    between atoms: _552  and  _554
REMARK  221  A    between atoms: _554  and  _555
REMARK  222  A    between atoms: _554  and  _557
REMARK  223  A    between atoms: _557  and  _558
REMARK  224  A    between atoms: _561  and  _563
REMARK  225  A    between atoms: _563  and  _564
REMARK  226  A    between atoms: _563  and  _566
REMARK  227  A    between atoms: _566  and  _567
REMARK  228  A    between atoms: _572  and  _573
REMARK  229  A    between atoms: _575  and  _577
REMARK  230  A    between atoms: _577  and  _578
REMARK  231  A    between atoms: _577  and  _580
REMARK  232  A    between atoms: _580  and  _581
REMARK  233  A    between atoms: _586  and  _588
REMARK  234  A    between atoms: _588  and  _589
REMARK  235  A    between atoms: _588  and  _591
REMARK  236  A    between atoms: _591  and  _592
REMARK  237  A    between atoms: _595  and  _597
REMARK  238  A    between atoms: _597  and  _598
REMARK  239  A    between atoms: _597  and  _600
REMARK  240  A    between atoms: _602  and  _604
REMARK  241  A    between atoms: _604  and  _605
REMARK  242  A    between atoms: _604  and  _607
REMARK  243  A    between atoms: _609  and  _611
REMARK  244  A    between atoms: _611  and  _612
REMARK  245  A    between atoms: _611  and  _614
REMARK  246  A    between atoms: _614  and  _615
REMARK  247  A    between atoms: _620  and  _622
REMARK  248  A    between atoms: _622  and  _623
REMARK  249  A    between atoms: _622  and  _625
REMARK  250  A    between atoms: _625  and  _626
REMARK  251  A    between atoms: _626  and  _627
REMARK  252  A    between atoms: _630  and  _632
REMARK  253  A    between atoms: _632  and  _633
REMARK  254  A    between atoms: _632  and  _635
REMARK  255  A    between atoms: _635  and  _636
REMARK  256  A    between atoms: _639  and  _641
REMARK  257  A    between atoms: _641  and  _642
REMARK  258  A    between atoms: _641  and  _644
REMARK  259  A    between atoms: _647  and  _649
REMARK  260  A    between atoms: _649  and  _650
REMARK  261  A    between atoms: _649  and  _652
REMARK  262  A    between atoms: _652  and  _653
REMARK  263  A    between atoms: _656  and  _658
REMARK  264  A    between atoms: _658  and  _659
REMARK  265  A    between atoms: _658  and  _661
REMARK  266  A    between atoms: _661  and  _662
REMARK  267  A    between atoms: _667  and  _668
REMARK  268  A    between atoms: _670  and  _672
REMARK  269  A    between atoms: _672  and  _673
REMARK  270  A    between atoms: _672  and  _675
REMARK  271  A    between atoms: _675  and  _676
REMARK  272  A    between atoms: _678  and  _680
REMARK  273  A    between atoms: _680  and  _681
REMARK  274  A    between atoms: _680  and  _683
REMARK  275  A    between atoms: _686  and  _688
REMARK  276  A    between atoms: _688  and  _689
REMARK  277  A    between atoms: _691  and  _693
REMARK  278  A    between atoms: _693  and  _694
REMARK  279  A    between atoms: _697  and  _699
REMARK  280  A    between atoms: _699  and  _700
REMARK  281  A    between atoms: _699  and  _702
REMARK  282  A    between atoms: _702  and  _703
REMARK  283  A    between atoms: _706  and  _708
REMARK  284  A    between atoms: _708  and  _709
REMARK  285  A    between atoms: _708  and  _711
REMARK  286  A    between atoms: _711  and  _712
REMARK  287  A    between atoms: _714  and  _716
REMARK  288  A    between atoms: _716  and  _717
REMARK  289  A    between atoms: _720  and  _722
REMARK  290  A    between atoms: _722  and  _723
REMARK  291  A    between atoms: _722  and  _725
REMARK  292  A    between atoms: _725  and  _726
REMARK  293  A    between atoms: _731  and  _733
REMARK  294  A    between atoms: _733  and  _734
REMARK  295  A    between atoms: _733  and  _736
REMARK  296  A    between atoms: _736  and  _737
REMARK                            x       y       z     vdW  Elec       q    Type
REMARK                         _______ _______ _______ _____ _____    ______ ____
ROOT
ATOM      1  CA  LEU A   1     -31.965  29.965 -81.049  0.00  0.00    +0.133 C 
ENDROOT
BRANCH   1   2
ATOM      2  N   LEU A   1     -32.666  30.849 -81.978  0.00  0.00    -0.239 NA
ATOM      3  H   LEU A   1     -32.474  31.871 -81.957  0.00  0.00    +0.142 HD
ENDBRANCH   1   2
BRANCH   1   4
ATOM      4  C   LEU A   1     -32.950  29.203 -80.171  0.00  0.00    +0.224 C 
ATOM      5  O   LEU A   1     -32.810  27.999 -79.969  0.00  0.00    -0.287 OA
ENDBRANCH   1   4
BRANCH   1   6
ATOM      6  CB  LEU A   1     -30.993  30.754 -80.168  0.00  0.00    +0.025 C 
BRANCH   6   7
ATOM      7  CG  LEU A   1     -30.455  30.024 -78.933  0.00  0.00    +0.002 C 
ATOM      8  CD2 LEU A   1     -29.580  30.960 -78.136  0.00  0.00    +0.000 C 
ATOM      9  CD1 LEU A   1     -29.682  28.778 -79.336  0.00  0.00    +0.000 C 
ENDBRANCH   6   7
ENDBRANCH   1   6
TORSDOF 4
REMARK  Name = ../refined-set-2016/2wva/2wva_pocket.pdb
REMARK  296 active torsions:
REMARK  status: ('A' for Active; 'I' for Inactive)
REMARK    1  A    between atoms: _1  and  _3
REMARK    2  A    between atoms: _3  and  _4
REMARK    3  A    between atoms: _3  and  _6
REMARK    4  A    between atoms: _6  and  _7
REMARK    5  A    between atoms: _10  and  _12
REMARK    6  A    between atoms: _12  and  _13
REMARK    7  A    between atoms: _12  and  _15
REMARK    8  A    between atoms: _15  and  _16
REMARK    9  A    between atoms: _22  and  _24
REMARK   10  A    between atoms: _24  and  _25
REMARK   11  A    between atoms: _24  and  _27
REMARK   12  A    between atoms: _27  and  _28
REMARK   13  A    between atoms: _31  and  _33
REMARK   14  A    between atoms: _33  and  _34
REMARK   15  A    between atoms: _33  and  _36
REMARK   16  A    between atoms: _36  and  _37
REMARK   17  A    between atoms: _42  and  _43
REMARK   18  A    between atoms: _45  and  _47
REMARK   19  A    between atoms: _47  and  _48
REMARK   20  A    between atoms: _47  and  _50
REMARK   21  A    between atoms: _50  and  _51
REMARK   22  A    between atoms: _56  and  _58
REMARK   23  A    between atoms: _58  and  _59
REMARK   24  A    between atoms: _58  and  _61
REMARK   25  A    between atoms: _61  and  _62
REMARK   26  A    between atoms: _62  and  _63
REMARK   27  A    between atoms: _66  and  _68
REMARK   28  A    between atoms: _68  and  _69
REMARK   29  A    between atoms: _68  and  _71
REMARK   30  A    between atoms: _71  and  _72
REMARK   31  A    between atoms: _75  and  _77
REMARK   32  A    between atoms: _77  and  _78
REMARK   33  A    between atoms: _80  and  _82
REMARK   34  A    between atoms: _82  and  _83
REMARK   35  A    between atoms: _82  and  _85
REMARK   36  A    between atoms: _85  and  _86
REMARK   37  A    between atoms: _89  and  _91
REMARK   38  A    between atoms: _91  and  _92
REMARK   39  A    between atoms: _91  and  _94
REMARK   40  A    between atoms: _94  and  _95
REMARK   41  A    between atoms: _97  and  _99
REMARK   42  A    between atoms: _99  and  _100
REMARK   43  A    between atoms: _99  and  _102
REMARK   44  A    between atoms: _102  and  _103
REMARK   45  A    between atoms: _113  and  _115
REMARK   46  A    between atoms: _115  and  _116
REMARK   47  A    between atoms: _115  and  _118
REMARK   48  A    between atoms: _118  and  _119
REMARK   49  A    between atoms: _125  and  _127
REMARK   50  A    between atoms: _127  and  _128
REMARK   51  A    between atoms: _127  and  _130
REMARK   52  A    between atoms: _130  and  _131
REMARK   53  A    between atoms: _136  and  _138
REMARK   54  A    between atoms: _138  and  _139
REMARK   55  A    between atoms: _138  and  _141
REMARK   56  A    between atoms: _141  and  _142
REMARK   57  A    between atoms: _142  and  _143
REMARK   58  A    between atoms: _146  and  _148
REMARK   59  A    between atoms: _148  and  _149
REMARK   60  A    between atoms: _148  and  _151
REMARK   61  A    between atoms: _151  and  _152
REMARK   62  A    between atoms: _162  and  _164
REMARK   63  A    between atoms: _164  and  _165
REMARK   64  A    between atoms: _167  and  _169
REMARK   65  A    between atoms: _169  and  _170
REMARK   66  A    between atoms: _169  and  _172
REMARK   67  A    between atoms: _172  and  _173
REMARK   68  A    between atoms: _178  and  _180
REMARK   69  A    between atoms: _180  and  _181
REMARK   70  A    between atoms: _180  and  _183
REMARK   71  A    between atoms: _183  and  _184
REMARK   72  A    between atoms: _187  and  _189
REMARK   73  A    between atoms: _189  and  _190
REMARK   74  A    between atoms: _192  and  _194
REMARK   75  A    between atoms: _194  and  _195
REMARK   76  A    between atoms: _194  and  _197
REMARK   77  A    between atoms: _197  and  _198
REMARK   78  A    between atoms: _208  and  _210
REMARK   79  A    between atoms: _210  and  _211
REMARK   80  A    between atoms: _210  and  _213
REMARK   81  A    between atoms: _213  and  _214
REMARK   82  A    between atoms: _216  and  _218
REMARK   83  A    between atoms: _218  and  _219
REMARK   84  A    between atoms: _218  and  _221
REMARK   85  A    between atoms: _221  and  _222
REMARK   86  A    between atoms: _222  and  _223
REMARK   87  A    between atoms: _225  and  _227
REMARK   88  A    between atoms: _227  and  _228
REMARK   89  A    between atoms: _227  and  _230
REMARK   90  A    between atoms: _233  and  _235
REMARK   91  A    between atoms: _235  and  _236
REMARK   92  A    between atoms: _238  and  _240
REMARK   93  A    between atoms: _240  and  _241
REMARK   94  A    between atoms: _240  and  _243
REMARK   95  A    between atoms: _243  and  _244
REMARK   96  A    between atoms: _247  and  _249
REMARK   97  A    between atoms: _249  and  _250
REMARK   98  A    between atoms: _252  and  _254
REMARK   99  A    between atoms: _254  and  _255
REMARK  100  A    between atoms: _254  and  _257
REMARK  101  A    between atoms: _257  and  _258
REMARK  102  A    between atoms: _260  and  _262
REMARK  103  A    between atoms: _262  and  _263
REMARK  104  A    between atoms: _262  and  _265
REMARK  105  A    between atoms: _265  and  _266
REMARK  106  A    between atoms: _272  and  _274
REMARK  107  A    between atoms: _274  and  _275
REMARK  108  A    between atoms: _274  and  _277
REMARK  109  A    between atoms: _277  and  _278
REMARK  110  A    between atoms: _278  and  _279
REMARK  111  A    between atoms: _284  and  _286
REMARK  112  A    between atoms: _286  and  _287
REMARK  113  A    between atoms: _286  and  _289
REMARK  114  A    between atoms: _289  and  _290
REMARK  115  A    between atoms: _293  and  _295
REMARK  116  A    between atoms: _295  and  _296
REMARK  117  A    between atoms: _295  and  _298
REMARK  118  A    between atoms: _298  and  _299
REMARK  119  A    between atoms: _302  and  _304
REMARK  120  A    between atoms: _304  and  _305
REMARK  121  A    between atoms: _304  and  _307
REMARK  122  A    between atoms: _307  and  _308
REMARK  123  A    between atoms: _311  and  _313
REMARK  124  A    between atoms: _313  and  _314
REMARK  125  A    between atoms: _313  and  _316
REMARK  126  A    between atoms: _316  and  _317
REMARK  127  A    between atoms: _322  and  _324
REMARK  128  A    between atoms: _324  and  _325
REMARK  129  A    between atoms: _324  and  _327
REMARK  130  A    between atoms: _327  and  _328
REMARK  131  A    between atoms: _333  and  _335
REMARK  132  A    between atoms: _335  and  _336
REMARK  133  A    between atoms: _335  and  _338
REMARK  134  A    between atoms: _338  and  _339
REMARK  135  A    between atoms: _344  and  _345
REMARK  136  A    between atoms: _347  and  _349
REMARK  137  A    between atoms: _349  and  _350
REMARK  138  A    between atoms: _352  and  _354
REMARK  139  A    between atoms: _354  and  _355
REMARK  140  A    between atoms: _354  and  _357
REMARK  141  A    between atoms: _357  and  _358
REMARK  142  A    between atoms: _363  and  _364
REMARK  143  A    between atoms: _366  and  _368
REMARK  144  A    between atoms: _368  and  _369
REMARK  145  A    between atoms: _368  and  _371
REMARK  146  A    between atoms: _371  and  _372
REMARK  147  A    between atoms: _375  and  _377
REMARK  148  A    between atoms: _377  and  _378
REMARK  149  A    between atoms: _377  and  _380
REMARK  150  A    between atoms: _380  and  _381
REMARK  151  A    between atoms: _384  and  _386
REMARK  152  A    between atoms: _386  and  _387
REMARK  153  A    between atoms: _386  and  _389
REMARK  154  A    between atoms: _389  and  _390
REMARK  155  A    between atoms: _390  and  _391
REMARK  156  A    between atoms: _394  and  _396
REMARK  157  A    between atoms: _396  and  _397
REMARK  158  A    between atoms: _396  and  _399
REMARK  159  A    between atoms: _402  and  _404
REMARK  160  A    between atoms: _404  and  _405
REMARK  161  A    between atoms: _404  and  _407
REMARK  162  A    between atoms: _407  and  _408
REMARK  163  A    between atoms: _408  and  _409
REMARK  164  A    between atoms: _411  and  _413
REMARK  165  A    between atoms: _413  and  _414
REMARK  166  A    between atoms: _413  and  _416
REMARK  167  A    between atoms: _416  and  _417
REMARK  168  A    between atoms: _420  and  _422
REMARK  169  A    between atoms: _422  and  _423
REMARK  170  A    between atoms: _422  and  _425
REMARK  171  A    between atoms: _425  and  _426
REMARK  172  A    between atoms: _431  and  _432
REMARK  173  A    between atoms: _434  and  _436
REMARK  174  A    between atoms: _436  and  _437
REMARK  175  A    between atoms: _436  and  _439
REMARK  176  A    between atoms: _439  and  _440
REMARK  177  A    between atoms: _445  and  _447
REMARK  178  A    between atoms: _447  and  _448
REMARK  179  A    between atoms: _447  and  _450
REMARK  180  A    between atoms: _450  and  _451
REMARK  181  A    between atoms: _454  and  _456
REMARK  182  A    between atoms: _456  and  _457
REMARK  183  A    between atoms: _456  and  _459
REMARK  184  A    between atoms: _459  and  _460
REMARK  185  A    between atoms: _465  and  _466
REMARK  186  A    between atoms: _468  and  _470
REMARK  187  A    between atoms: _470  and  _471
REMARK  188  A    between atoms: _470  and  _473
REMARK  189  A    between atoms: _473  and  _474
REMARK  190  A    between atoms: _477  and  _479
REMARK  191  A    between atoms: _479  and  _480
REMARK  192  A    between atoms: _482  and  _484
REMARK  193  A    between atoms: _484  and  _485
REMARK  194  A    between atoms: _484  and  _487
REMARK  195  A    between atoms: _487  and  _488
REMARK  196  A    between atoms: _488  and  _489
REMARK  197  A    between atoms: _489  and  _490
REMARK  198  A    between atoms: _499  and  _501
REMARK  199  A    between atoms: _501  and  _502
REMARK  200  A    between atoms: _501  and  _504
REMARK  201  A    between atoms: _504  and  _505
REMARK  202  A    between atoms: _508  and  _510
REMARK  203  A    between atoms: _510  and  _511
REMARK  204  A    between atoms: _510  and  _513
REMARK  205  A    between atoms: _515  and  _517
REMARK  206  A    between atoms: _517  and  _518
REMARK  207  A    between atoms: _517  and  _520
REMARK  208  A    between atoms: _520  and  _521
REMARK  209  A    between atoms: _524  and  _526
REMARK  210  A    between atoms: _526  and  _527
REMARK  211  A    between atoms: _526  and  _529
REMARK  212  A    between atoms: _529  and  _530
REMARK  213  A    between atoms: _533  and  _535
REMARK  214  A    between atoms: _535  and  _536
REMARK  215  A    between atoms: _535  and  _538
REMARK  216  A    between atoms: _541  and  _543
REMARK  217  A    between atoms: _543  and  _544
REMARK  218  A    between atoms: _547  and  _549
REMARK  219  A    between atoms: _549  and  _550
REMARK  220  A    between atoms: _552  and  _554
REMARK  221  A    between atoms: _554  and  _555
REMARK  222  A    between atoms: _554  and  _557
REMARK  223  A    between atoms: _557  and  _558
REMARK  224  A    between atoms: _561  and  _563
REMARK  225  A    between atoms: _563  and  _564
REMARK  226  A    between atoms: _563  and  _566
REMARK  227  A    between atoms: _566  and  _567
REMARK  228  A    between atoms: _572  and  _573
REMARK  229  A    between atoms: _575  and  _577
REMARK  230  A    between atoms: _577  and  _578
REMARK  231  A    between atoms: _577  and  _580
REMARK  232  A    between atoms: _580  and  _581
REMARK  233  A    between atoms: _586  and  _588
REMARK  234  A    between atoms: _588  and  _589
REMARK  235  A    between atoms: _588  and  _591
REMARK  236  A    between atoms: _591  and  _592
REMARK  237  A    between atoms: _595  and  _597
REMARK  238  A    between atoms: _597  and  _598
REMARK  239  A    between atoms: _597  and  _600
REMARK  240  A    between atoms: _602  and  _604
REMARK  241  A    between atoms: _604  and  _605
REMARK  242  A    between atoms: _604  and  _607
REMARK  243  A    between atoms: _609  and  _611
REMARK  244  A    between atoms: _611  and  _612
REMARK  245  A    between atoms: _611  and  _614
REMARK  246  A    between atoms: _614  and  _615
REMARK  247  A    between atoms: _620  and  _622
REMARK  248  A    between atoms: _622  and  _623
REMARK  249  A    between atoms: _622  and  _625
REMARK  250  A    between atoms: _625  and  _626
REMARK  251  A    between atoms: _626  and  _627
REMARK  252  A    between atoms: _630  and  _632
REMARK  253  A    between atoms: _632  and  _633
REMARK  254  A    between atoms: _632  and  _635
REMARK  255  A    between atoms: _635  and  _636
REMARK  256  A    between atoms: _639  and  _641
REMARK  257  A    between atoms: _641  and  _642
REMARK  258  A    between atoms: _641  and  _644
REMARK  259  A    between atoms: _647  and  _649
REMARK  260  A    between atoms: _649  and  _650
REMARK  261  A    between atoms: _649  and  _652
REMARK  262  A    between atoms: _652  and  _653
REMARK  263  A    between atoms: _656  and  _658
REMARK  264  A    between atoms: _658  and  _659
REMARK  265  A    between atoms: _658  and  _661
REMARK  266  A    between atoms: _661  and  _662
REMARK  267  A    between atoms: _667  and  _668
REMARK  268  A    between atoms: _670  and  _672
REMARK  269  A    between atoms: _672  and  _673
REMARK  270  A    between atoms: _672  and  _675
REMARK  271  A    between atoms: _675  and  _676
REMARK  272  A    between atoms: _678  and  _680
REMARK  273  A    between atoms: _680  and  _681
REMARK  274  A    between atoms: _680  and  _683
REMARK  275  A    between atoms: _686  and  _688
REMARK  276  A    between atoms: _688  and  _689
REMARK  277  A    between atoms: _691  and  _693
REMARK  278  A    between atoms: _693  and  _694
REMARK  279  A    between atoms: _697  and  _699
REMARK  280  A    between atoms: _699  and  _700
REMARK  281  A    between atoms: _699  and  _702
REMARK  282  A    between atoms: _702  and  _703
REMARK  283  A    between atoms: _706  and  _708
REMARK  284  A    between atoms: _708  and  _709
REMARK  285  A    between atoms: _708  and  _711
REMARK  286  A    between atoms: _711  and  _712
REMARK  287  A    between atoms: _714  and  _716
REMARK  288  A    between atoms: _716  and  _717
REMARK  289  A    between atoms: _720  and  _722
REMARK  290  A    between atoms: _722  and  _723
REMARK  291  A    between atoms: _722  and  _725
REMARK  292  A    between atoms: _725  and  _726
REMARK  293  A    between atoms: _731  and  _733
REMARK  294  A    between atoms: _733  and  _734
REMARK  295  A    between atoms: _733  and  _736
REMARK  296  A    between atoms: _736  and  _737
REMARK                            x       y       z     vdW  Elec       q    Type
REMARK                         _______ _______ _______ _____ _____    ______ ____
ROOT
ATOM      1  CA  TYR A   5     -24.446  15.156 -75.037  0.00  0.00    +0.153 C 
ENDROOT
BRANCH   1   4
ATOM      2  C   ASP A   4     -25.653  17.254 -74.828  0.00  0.00    +0.241 C 
ATOM      3  O   ASP A   4     -26.666  16.663 -74.447  0.00  0.00    -0.273 OA
ATOM      4  N   TYR A   5     -24.531  16.614 -75.136  0.00  0.00    -0.297 N 
ATOM      5  H   TYR A   5     -23.701  17.156 -75.452  0.00  0.00    +0.150 HD
BRANCH   2   6
ATOM      6  CA  ASP A   4     -25.646  18.788 -74.927  0.00  0.00    +0.160 C 
BRANCH   6   9
ATOM      7  C   GLY A   3     -23.640  19.120 -73.657  0.00  0.00    +0.243 C 
ATOM      8  O   GLY A   3     -24.028  18.292 -72.833  0.00  0.00    -0.273 OA
ATOM      9  N   ASP A   4     -24.334  19.394 -74.757  0.00  0.00    -0.296 N 
ATOM     10  H   ASP A   4     -23.946  20.030 -75.483  0.00  0.00    +0.150 HD
BRANCH   7  11
ATOM     11  CA  GLY A   3     -22.328  19.858 -73.435  0.00  0.00    +0.176 C 
BRANCH  11  13
ATOM     12  C   ALA A   2     -21.298  20.838 -71.445  0.00  0.00    +0.241 C 
ATOM     13  N   GLY A   3     -22.103  19.940 -72.006  0.00  0.00    -0.295 N 
ATOM     14  H   GLY A   3     -22.595  19.263 -71.388  0.00  0.00    +0.150 HD
ATOM     15  O   ALA A   2     -20.565  21.579 -72.083  0.00  0.00    -0.273 OA
BRANCH  12  16
ATOM     16  CA  ALA A   2     -21.339  20.914 -69.931  0.00  0.00    +0.149 C 
ATOM     17  CB  ALA A   2     -22.399  21.907 -69.503  0.00  0.00    +0.031 C 
BRANCH  16  19
ATOM     18  C   VAL A   1     -18.999  20.468 -69.424  0.00  0.00    +0.238 C 
ATOM     19  N   ALA A   2     -20.057  21.269 -69.343  0.00  0.00    -0.297 N 
ATOM     20  H   ALA A   2     -19.965  22.177 -68.844  0.00  0.00    +0.150 HD
ATOM     21  O   VAL A   1     -19.010  19.402 -70.050  0.00  0.00    -0.274 OA
BRANCH  18  22
ATOM     22  CA  VAL A   1     -17.758  20.923 -68.670  0.00  0.00    +0.145 C 
BRANCH  22  23
ATOM     23  CB  VAL A   1     -16.618  21.187 -69.655  0.00  0.00    +0.025 C 
ATOM     24  CG2 VAL A   1     -15.309  21.455 -68.896  0.00  0.00    +0.002 C 
ATOM     25  CG1 VAL A   1     -16.974  22.358 -70.587  0.00  0.00    +0.002 C 
ENDBRANCH  22  23
BRANCH  22  26
ATOM     26  N   VAL A   1     -17.426  19.870 -67.723  0.00  0.00    -0.238 NA
ATOM     27  H   VAL A   1     -17.365  18.895 -68.079  0.00  0.00    +0.142 HD
ENDBRANCH  22  26
ENDBRANCH  18  22
ENDBRANCH  16  19
ENDBRANCH  12  16
ENDBRANCH  11  13
ENDBRANCH   7  11
ENDBRANCH   6   9
BRANCH   6  28
ATOM     28  CB  ASP A   4     -26.403  19.319 -76.176  0.00  0.00    +0.143 C 
BRANCH  28  29
ATOM     29  CG  ASP A   4     -25.706  19.001 -77.505  0.00  0.00    +0.367 C 
ATOM     30  OD2 ASP A   4     -24.508  18.605 -77.515  0.00  0.00    -0.246 OA
ATOM     31  OD1 ASP A   4     -26.377  19.169 -78.557  0.00  0.00    -0.246 OA
ENDBRANCH  28  29
ENDBRANCH   6  28
ENDBRANCH   2   6
ENDBRANCH   1   4
BRANCH   1  32
ATOM     32  C   TYR A   5     -24.308  14.668 -73.590  0.00  0.00    +0.241 C 
ATOM     33  N   ASN A   6     -24.058  15.583 -72.649  0.00  0.00    -0.297 N 
ATOM     34  H   ASN A   6     -23.960  16.584 -72.912  0.00  0.00    +0.150 HD
ATOM     35  O   TYR A   5     -24.393  13.458 -73.338  0.00  0.00    -0.273 OA
BRANCH  33  36
ATOM     36  CA  ASN A   6     -23.922  15.178 -71.248  0.00  0.00    +0.158 C 
BRANCH  36  37
ATOM     37  C   ASN A   6     -24.816  15.919 -70.238  0.00  0.00    +0.241 C 
ATOM     38  O   ASN A   6     -24.719  15.667 -69.024  0.00  0.00    -0.273 OA
ATOM     39  N   LEU A   7     -25.700  16.801 -70.717  0.00  0.00    -0.298 N 
ATOM     40  H   LEU A   7     -25.801  16.922 -71.745  0.00  0.00    +0.150 HD
BRANCH  39  41
ATOM     41  CA  LEU A   7     -26.531  17.602 -69.806  0.00  0.00    +0.137 C 
BRANCH  41  42
ATOM     42  C   LEU A   7     -27.424  16.741 -68.915  0.00  0.00    +0.227 C 
ATOM     43  O   LEU A   7     -27.514  16.962 -67.711  0.00  0.00    -0.286 OA
ENDBRANCH  41  42
BRANCH  41  44
ATOM     44  CB  LEU A   7     -27.362  18.639 -70.565  0.00  0.00    +0.028 C 
BRANCH  44  45
ATOM     45  CG  LEU A   7     -26.567  19.632 -71.430  0.00  0.00    +0.002 C 
ATOM     46  CD2 LEU A   7     -25.495  20.377 -70.602  0.00  0.00    +0.000 C 
ATOM     47  CD1 LEU A   7     -27.511  20.609 -72.134  0.00  0.00    +0.000 C 
ENDBRANCH  44  45
ENDBRANCH  41  44
ENDBRANCH  39  41
ENDBRANCH  36  37
BRANCH  36  48
ATOM     48  CB  ASN A   6     -22.451  15.176 -70.796  0.00  0.00    +0.114 C 
BRANCH  48  49
ATOM     49  CG  ASN A   6     -21.915  16.573 -70.492  0.00  0.00    +0.222 C 
ATOM     50  OD1 ASN A   6     -22.675  17.530 -70.356  0.00  0.00    -0.275 OA
ATOM     51  ND2 ASN A   6     -20.594  16.689 -70.382  0.00  0.00    -0.329 N 
ATOM     52 HD21 ASN A   6     -20.169  17.615 -70.174  0.00  0.00    +0.145 HD
ATOM     53 HD22 ASN A   6     -19.987  15.854 -70.504  0.00  0.00    +0.145 HD
ENDBRANCH  48  49
ENDBRANCH  36  48
ENDBRANCH  33  36
ENDBRANCH   1  32
BRANCH   1  54
ATOM     54  CB  TYR A   5     -23.267  14.613 -75.845  0.00  0.00    +0.055 C 
BRANCH  54  55
ATOM     55  CG  TYR A   5     -23.446  14.654 -77.338  0.00  0.00    -0.020 A 
ATOM     56  CD2 TYR A   5     -24.386  13.859 -77.964  0.00  0.00    -0.001 A 
ATOM     57  CE2 TYR A   5     -24.544  13.884 -79.369  0.00  0.00    +0.036 A 
ATOM     58  CZ  TYR A   5     -23.728  14.701 -80.131  0.00  0.00    +0.134 A 
ATOM     59  CE1 TYR A   5     -22.777  15.484 -79.528  0.00  0.00    +0.036 A 
ATOM     60  CD1 TYR A   5     -22.633  15.457 -78.129  0.00  0.00    -0.001 A 
BRANCH  58  61
ATOM     61  OH  TYR A   5     -23.856  14.743 -81.486  0.00  0.00    -0.506 OA
ATOM     62  HH  TYR A   5     -24.079  15.666 -81.767  0.00  0.00    +0.292 HD
ENDBRANCH  58  61
ENDBRANCH  54  55
ENDBRANCH   1  54
TORSDOF 24
REMARK  Name = ../refined-set-2016/2wva/2wva_pocket.pdb
REMARK  296 active torsions:
REMARK  status: ('A' for Active; 'I' for Inactive)
REMARK    1  A    between atoms: _1  and  _3
REMARK    2  A    between atoms: _3  and  _4
REMARK    3  A    between atoms: _3  and  _6
REMARK    4  A    between atoms: _6  and  _7
REMARK    5  A    between atoms: _10  and  _12
REMARK    6  A    between atoms: _12  and  _13
REMARK    7  A    between atoms: _12  and  _15
REMARK    8  A    between atoms: _15  and  _16
REMARK    9  A    between atoms: _22  and  _24
REMARK   10  A    between atoms: _24  and  _25
REMARK   11  A    between atoms: _24  and  _27
REMARK   12  A    between atoms: _27  and  _28
REMARK   13  A    between atoms: _31  and  _33
REMARK   14  A    between atoms: _33  and  _34
REMARK   15  A    between atoms: _33  and  _36
REMARK   16  A    between atoms: _36  and  _37
REMARK   17  A    between atoms: _42  and  _43
REMARK   18  A    between atoms: _45  and  _47
REMARK   19  A    between atoms: _47  and  _48
REMARK   20  A    between atoms: _47  and  _50
REMARK   21  A    between atoms: _50  and  _51
REMARK   22  A    between atoms: _56  and  _58
REMARK   23  A    between atoms: _58  and  _59
REMARK   24  A    between atoms: _58  and  _61
REMARK   25  A    between atoms: _61  and  _62
REMARK   26  A    between atoms: _62  and  _63
REMARK   27  A    between atoms: _66  and  _68
REMARK   28  A    between atoms: _68  and  _69
REMARK   29  A    between atoms: _68  and  _71
REMARK   30  A    between atoms: _71  and  _72
REMARK   31  A    between atoms: _75  and  _77
REMARK   32  A    between atoms: _77  and  _78
REMARK   33  A    between atoms: _80  and  _82
REMARK   34  A    between atoms: _82  and  _83
REMARK   35  A    between atoms: _82  and  _85
REMARK   36  A    between atoms: _85  and  _86
REMARK   37  A    between atoms: _89  and  _91
REMARK   38  A    between atoms: _91  and  _92
REMARK   39  A    between atoms: _91  and  _94
REMARK   40  A    between atoms: _94  and  _95
REMARK   41  A    between atoms: _97  and  _99
REMARK   42  A    between atoms: _99  and  _100
REMARK   43  A    between atoms: _99  and  _102
REMARK   44  A    between atoms: _102  and  _103
REMARK   45  A    between atoms: _113  and  _115
REMARK   46  A    between atoms: _115  and  _116
REMARK   47  A    between atoms: _115  and  _118
REMARK   48  A    between atoms: _118  and  _119
REMARK   49  A    between atoms: _125  and  _127
REMARK   50  A    between atoms: _127  and  _128
REMARK   51  A    between atoms: _127  and  _130
REMARK   52  A    between atoms: _130  and  _131
REMARK   53  A    between atoms: _136  and  _138
REMARK   54  A    between atoms: _138  and  _139
REMARK   55  A    between atoms: _138  and  _141
REMARK   56  A    between atoms: _141  and  _142
REMARK   57  A    between atoms: _142  and  _143
REMARK   58  A    between atoms: _146  and  _148
REMARK   59  A    between atoms: _148  and  _149
REMARK   60  A    between atoms: _148  and  _151
REMARK   61  A    between atoms: _151  and  _152
REMARK   62  A    between atoms: _162  and  _164
REMARK   63  A    between atoms: _164  and  _165
REMARK   64  A    between atoms: _167  and  _169
REMARK   65  A    between atoms: _169  and  _170
REMARK   66  A    between atoms: _169  and  _172
REMARK   67  A    between atoms: _172  and  _173
REMARK   68  A    between atoms: _178  and  _180
REMARK   69  A    between atoms: _180  and  _181
REMARK   70  A    between atoms: _180  and  _183
REMARK   71  A    between atoms: _183  and  _184
REMARK   72  A    between atoms: _187  and  _189
REMARK   73  A    between atoms: _189  and  _190
REMARK   74  A    between atoms: _192  and  _194
REMARK   75  A    between atoms: _194  and  _195
REMARK   76  A    between atoms: _194  and  _197
REMARK   77  A    between atoms: _197  and  _198
REMARK   78  A    between atoms: _208  and  _210
REMARK   79  A    between atoms: _210  and  _211
REMARK   80  A    between atoms: _210  and  _213
REMARK   81  A    between atoms: _213  and  _214
REMARK   82  A    between atoms: _216  and  _218
REMARK   83  A    between atoms: _218  and  _219
REMARK   84  A    between atoms: _218  and  _221
REMARK   85  A    between atoms: _221  and  _222
REMARK   86  A    between atoms: _222  and  _223
REMARK   87  A    between atoms: _225  and  _227
REMARK   88  A    between atoms: _227  and  _228
REMARK   89  A    between atoms: _227  and  _230
REMARK   90  A    between atoms: _233  and  _235
REMARK   91  A    between atoms: _235  and  _236
REMARK   92  A    between atoms: _238  and  _240
REMARK   93  A    between atoms: _240  and  _241
REMARK   94  A    between atoms: _240  and  _243
REMARK   95  A    between atoms: _243  and  _244
REMARK   96  A    between atoms: _247  and  _249
REMARK   97  A    between atoms: _249  and  _250
REMARK   98  A    between atoms: _252  and  _254
REMARK   99  A    between atoms: _254  and  _255
REMARK  100  A    between atoms: _254  and  _257
REMARK  101  A    between atoms: _257  and  _258
REMARK  102  A    between atoms: _260  and  _262
REMARK  103  A    between atoms: _262  and  _263
REMARK  104  A    between atoms: _262  and  _265
REMARK  105  A    between atoms: _265  and  _266
REMARK  106  A    between atoms: _272  and  _274
REMARK  107  A    between atoms: _274  and  _275
REMARK  108  A    between atoms: _274  and  _277
REMARK  109  A    between atoms: _277  and  _278
REMARK  110  A    between atoms: _278  and  _279
REMARK  111  A    between atoms: _284  and  _286
REMARK  112  A    between atoms: _286  and  _287
REMARK  113  A    between atoms: _286  and  _289
REMARK  114  A    between atoms: _289  and  _290
REMARK  115  A    between atoms: _293  and  _295
REMARK  116  A    between atoms: _295  and  _296
REMARK  117  A    between atoms: _295  and  _298
REMARK  118  A    between atoms: _298  and  _299
REMARK  119  A    between atoms: _302  and  _304
REMARK  120  A    between atoms: _304  and  _305
REMARK  121  A    between atoms: _304  and  _307
REMARK  122  A    between atoms: _307  and  _308
REMARK  123  A    between atoms: _311  and  _313
REMARK  124  A    between atoms: _313  and  _314
REMARK  125  A    between atoms: _313  and  _316
REMARK  126  A    between atoms: _316  and  _317
REMARK  127  A    between atoms: _322  and  _324
REMARK  128  A    between atoms: _324  and  _325
REMARK  129  A    between atoms: _324  and  _327
REMARK  130  A    between atoms: _327  and  _328
REMARK  131  A    between atoms: _333  and  _335
REMARK  132  A    between atoms: _335  and  _336
REMARK  133  A    between atoms: _335  and  _338
REMARK  134  A    between atoms: _338  and  _339
REMARK  135  A    between atoms: _344  and  _345
REMARK  136  A    between atoms: _347  and  _349
REMARK  137  A    between atoms: _349  and  _350
REMARK  138  A    between atoms: _352  and  _354
REMARK  139  A    between atoms: _354  and  _355
REMARK  140  A    between atoms: _354  and  _357
REMARK  141  A    between atoms: _357  and  _358
REMARK  142  A    between atoms: _363  and  _364
REMARK  143  A    between atoms: _366  and  _368
REMARK  144  A    between atoms: _368  and  _369
REMARK  145  A    between atoms: _368  and  _371
REMARK  146  A    between atoms: _371  and  _372
REMARK  147  A    between atoms: _375  and  _377
REMARK  148  A    between atoms: _377  and  _378
REMARK  149  A    between atoms: _377  and  _380
REMARK  150  A    between atoms: _380  and  _381
REMARK  151  A    between atoms: _384  and  _386
REMARK  152  A    between atoms: _386  and  _387
REMARK  153  A    between atoms: _386  and  _389
REMARK  154  A    between atoms: _389  and  _390
REMARK  155  A    between atoms: _390  and  _391
REMARK  156  A    between atoms: _394  and  _396
REMARK  157  A    between atoms: _396  and  _397
REMARK  158  A    between atoms: _396  and  _399
REMARK  159  A    between atoms: _402  and  _404
REMARK  160  A    between atoms: _404  and  _405
REMARK  161  A    between atoms: _404  and  _407
REMARK  162  A    between atoms: _407  and  _408
REMARK  163  A    between atoms: _408  and  _409
REMARK  164  A    between atoms: _411  and  _413
REMARK  165  A    between atoms: _413  and  _414
REMARK  166  A    between atoms: _413  and  _416
REMARK  167  A    between atoms: _416  and  _417
REMARK  168  A    between atoms: _420  and  _422
REMARK  169  A    between atoms: _422  and  _423
REMARK  170  A    between atoms: _422  and  _425
REMARK  171  A    between atoms: _425  and  _426
REMARK  172  A    between atoms: _431  and  _432
REMARK  173  A    between atoms: _434  and  _436
REMARK  174  A    between atoms: _436  and  _437
REMARK  175  A    between atoms: _436  and  _439
REMARK  176  A    between atoms: _439  and  _440
REMARK  177  A    between atoms: _445  and  _447
REMARK  178  A    between atoms: _447  and  _448
REMARK  179  A    between atoms: _447  and  _450
REMARK  180  A    between atoms: _450  and  _451
REMARK  181  A    between atoms: _454  and  _456
REMARK  182  A    between atoms: _456  and  _457
REMARK  183  A    between atoms: _456  and  _459
REMARK  184  A    between atoms: _459  and  _460
REMARK  185  A    between atoms: _465  and  _466
REMARK  186  A    between atoms: _468  and  _470
REMARK  187  A    between atoms: _470  and  _471
REMARK  188  A    between atoms: _470  and  _473
REMARK  189  A    between atoms: _473  and  _474
REMARK  190  A    between atoms: _477  and  _479
REMARK  191  A    between atoms: _479  and  _480
REMARK  192  A    between atoms: _482  and  _484
REMARK  193  A    between atoms: _484  and  _485
REMARK  194  A    between atoms: _484  and  _487
REMARK  195  A    between atoms: _487  and  _488
REMARK  196  A    between atoms: _488  and  _489
REMARK  197  A    between atoms: _489  and  _490
REMARK  198  A    between atoms: _499  and  _501
REMARK  199  A    between atoms: _501  and  _502
REMARK  200  A    between atoms: _501  and  _504
REMARK  201  A    between atoms: _504  and  _505
REMARK  202  A    between atoms: _508  and  _510
REMARK  203  A    between atoms: _510  and  _511
REMARK  204  A    between atoms: _510  and  _513
REMARK  205  A    between atoms: _515  and  _517
REMARK  206  A    between atoms: _517  and  _518
REMARK  207  A    between atoms: _517  and  _520
REMARK  208  A    between atoms: _520  and  _521
REMARK  209  A    between atoms: _524  and  _526
REMARK  210  A    between atoms: _526  and  _527
REMARK  211  A    between atoms: _526  and  _529
REMARK  212  A    between atoms: _529  and  _530
REMARK  213  A    between atoms: _533  and  _535
REMARK  214  A    between atoms: _535  and  _536
REMARK  215  A    between atoms: _535  and  _538
REMARK  216  A    between atoms: _541  and  _543
REMARK  217  A    between atoms: _543  and  _544
REMARK  218  A    between atoms: _547  and  _549
REMARK  219  A    between atoms: _549  and  _550
REMARK  220  A    between atoms: _552  and  _554
REMARK  221  A    between atoms: _554  and  _555
REMARK  222  A    between atoms: _554  and  _557
REMARK  223  A    between atoms: _557  and  _558
REMARK  224  A    between atoms: _561  and  _563
REMARK  225  A    between atoms: _563  and  _564
REMARK  226  A    between atoms: _563  and  _566
REMARK  227  A    between atoms: _566  and  _567
REMARK  228  A    between atoms: _572  and  _573
REMARK  229  A    between atoms: _575  and  _577
REMARK  230  A    between atoms: _577  and  _578
REMARK  231  A    between atoms: _577  and  _580
REMARK  232  A    between atoms: _580  and  _581
REMARK  233  A    between atoms: _586  and  _588
REMARK  234  A    between atoms: _588  and  _589
REMARK  235  A    between atoms: _588  and  _591
REMARK  236  A    between atoms: _591  and  _592
REMARK  237  A    between atoms: _595  and  _597
REMARK  238  A    between atoms: _597  and  _598
REMARK  239  A    between atoms: _597  and  _600
REMARK  240  A    between atoms: _602  and  _604
REMARK  241  A    between atoms: _604  and  _605
REMARK  242  A    between atoms: _604  and  _607
REMARK  243  A    between atoms: _609  and  _611
REMARK  244  A    between atoms: _611  and  _612
REMARK  245  A    between atoms: _611  and  _614
REMARK  246  A    between atoms: _614  and  _615
REMARK  247  A    between atoms: _620  and  _622
REMARK  248  A    between atoms: _622  and  _623
REMARK  249  A    between atoms: _622  and  _625
REMARK  250  A    between atoms: _625  and  _626
REMARK  251  A    between atoms: _626  and  _627
REMARK  252  A    between atoms: _630  and  _632
REMARK  253  A    between atoms: _632  and  _633
REMARK  254  A    between atoms: _632  and  _635
REMARK  255  A    between atoms: _635  and  _636
REMARK  256  A    between atoms: _639  and  _641
REMARK  257  A    between atoms: _641  and  _642
REMARK  258  A    between atoms: _641  and  _644
REMARK  259  A    between atoms: _647  and  _649
REMARK  260  A    between atoms: _649  and  _650
REMARK  261  A    between atoms: _649  and  _652
REMARK  262  A    between atoms: _652  and  _653
REMARK  263  A    between atoms: _656  and  _658
REMARK  264  A    between atoms: _658  and  _659
REMARK  265  A    between atoms: _658  and  _661
REMARK  266  A    between atoms: _661  and  _662
REMARK  267  A    between atoms: _667  and  _668
REMARK  268  A    between atoms: _670  and  _672
REMARK  269  A    between atoms: _672  and  _673
REMARK  270  A    between atoms: _672  and  _675
REMARK  271  A    between atoms: _675  and  _676
REMARK  272  A    between atoms: _678  and  _680
REMARK  273  A    between atoms: _680  and  _681
REMARK  274  A    between atoms: _680  and  _683
REMARK  275  A    between atoms: _686  and  _688
REMARK  276  A    between atoms: _688  and  _689
REMARK  277  A    between atoms: _691  and  _693
REMARK  278  A    between atoms: _693  and  _694
REMARK  279  A    between atoms: _697  and  _699
REMARK  280  A    between atoms: _699  and  _700
REMARK  281  A    between atoms: _699  and  _702
REMARK  282  A    between atoms: _702  and  _703
REMARK  283  A    between atoms: _706  and  _708
REMARK  284  A    between atoms: _708  and  _709
REMARK  285  A    between atoms: _708  and  _711
REMARK  286  A    between atoms: _711  and  _712
REMARK  287  A    between atoms: _714  and  _716
REMARK  288  A    between atoms: _716  and  _717
REMARK  289  A    between atoms: _720  and  _722
REMARK  290  A    between atoms: _722  and  _723
REMARK  291  A    between atoms: _722  and  _725
REMARK  292  A    between atoms: _725  and  _726
REMARK  293  A    between atoms: _731  and  _733
REMARK  294  A    between atoms: _733  and  _734
REMARK  295  A    between atoms: _733  and  _736
REMARK  296  A    between atoms: _736  and  _737
REMARK                            x       y       z     vdW  Elec       q    Type
REMARK                         _______ _______ _______ _____ _____    ______ ____
ROOT
ATOM      1  CA  ASN A   3     -12.053  23.870 -70.797  0.00  0.00    +0.158 C 
ENDROOT
BRANCH   1   2
ATOM      2  C   ASN A   3     -11.773  22.435 -70.410  0.00  0.00    +0.241 C 
ATOM      3  O   ASN A   3     -11.536  22.154 -69.242  0.00  0.00    -0.273 OA
ATOM      4  N   GLU A   4     -11.816  21.523 -71.366  0.00  0.00    -0.297 N 
ATOM      5  H   GLU A   4     -11.902  21.820 -72.359  0.00  0.00    +0.150 HD
BRANCH   4   6
ATOM      6  CA  GLU A   4     -11.744  20.105 -71.039  0.00  0.00    +0.149 C 
BRANCH   6   7
ATOM      7  C   GLU A   4     -10.343  19.611 -70.712  0.00  0.00    +0.241 C 
ATOM      8  O   GLU A   4     -10.198  18.641 -69.976  0.00  0.00    -0.273 OA
ATOM      9  N   LEU A   5      -9.316  20.259 -71.264  0.00  0.00    -0.298 N 
ATOM     10  H   LEU A   5      -9.498  21.022 -71.947  0.00  0.00    +0.150 HD
BRANCH   9  11
ATOM     11  CA  LEU A   5      -7.950  19.914 -70.924  0.00  0.00    +0.137 C 
BRANCH  11  12
ATOM     12  C   LEU A   5      -7.737  20.249 -69.461  0.00  0.00    +0.227 C 
ATOM     13  O   LEU A   5      -7.228  19.417 -68.710  0.00  0.00    -0.286 OA
ENDBRANCH  11  12
BRANCH  11  14
ATOM     14  CB  LEU A   5      -6.944  20.672 -71.790  0.00  0.00    +0.028 C 
BRANCH  14  15
ATOM     15  CG  LEU A   5      -5.470  20.426 -71.431  0.00  0.00    +0.002 C 
ATOM     16  CD2 LEU A   5      -5.074  18.998 -71.750  0.00  0.00    +0.000 C 
ATOM     17  CD1 LEU A   5      -4.573  21.389 -72.187  0.00  0.00    +0.000 C 
ENDBRANCH  14  15
ENDBRANCH  11  14
ENDBRANCH   9  11
ENDBRANCH   6   7
BRANCH   6  18
ATOM     18  CB  GLU A   4     -12.365  19.242 -72.139  0.00  0.00    +0.041 C 
BRANCH  18  19
ATOM     19  CG  GLU A   4     -13.853  19.378 -72.218  0.00  0.00    +0.116 C 
BRANCH  19  20
ATOM     20  CD  GLU A   4     -14.298  20.605 -72.984  0.00  0.00    +0.365 C 
ATOM     21  OE2 GLU A   4     -15.532  20.778 -73.150  0.00  0.00    -0.246 OA
ATOM     22  OE1 GLU A   4     -13.418  21.374 -73.447  0.00  0.00    -0.246 OA
ENDBRANCH  19  20
ENDBRANCH  18  19
ENDBRANCH   6  18
ENDBRANCH   4   6
ENDBRANCH   1   2
BRANCH   1  24
ATOM     23  C   CYS A   2     -13.072  25.637 -69.462  0.00  0.00    +0.242 C 
ATOM     24  N   ASN A   3     -12.144  24.699 -69.597  0.00  0.00    -0.297 N 
ATOM     25  H   ASN A   3     -11.462  24.549 -68.827  0.00  0.00    +0.150 HD
ATOM     26  O   CYS A   2     -13.903  25.888 -70.332  0.00  0.00    -0.273 OA
BRANCH  23  27
ATOM     27  CA  CYS A   2     -13.061  26.420 -68.162  0.00  0.00    +0.160 C 
BRANCH  27  29
ATOM     28  C   CYS A   1     -14.133  24.797 -66.696  0.00  0.00    +0.239 C 
ATOM     29  N   CYS A   2     -13.075  25.549 -66.994  0.00  0.00    -0.296 N 
ATOM     30  H   CYS A   2     -12.238  25.514 -66.378  0.00  0.00    +0.150 HD
ATOM     31  O   CYS A   1     -15.158  24.762 -67.391  0.00  0.00    -0.274 OA
BRANCH  28  32
ATOM     32  CA  CYS A   1     -14.022  23.962 -65.423  0.00  0.00    +0.156 C 
BRANCH  32  33
ATOM     33  CB  CYS A   1     -13.122  22.763 -65.679  0.00  0.00    +0.095 C 
ATOM     34  SG  CYS A   1     -12.724  21.874 -64.185  0.00  0.00    -0.080 S 
ENDBRANCH  32  33
BRANCH  32  35
ATOM     35  N   CYS A   1     -15.328  23.514 -64.962  0.00  0.00    -0.237 NA
ATOM     36  H   CYS A   1     -15.917  22.953 -65.610  0.00  0.00    +0.142 HD
ENDBRANCH  32  35
ENDBRANCH  28  32
ENDBRANCH  27  29
BRANCH  27  37
ATOM     37  CB  CYS A   2     -11.855  27.352 -68.117  0.00  0.00    +0.098 C 
ATOM     38  SG  CYS A   2     -11.985  28.559 -66.790  0.00  0.00    -0.080 S 
ENDBRANCH  27  37
ENDBRANCH  23  27
ENDBRANCH   1  24
BRANCH   1  39
ATOM     39  CB  ASN A   3     -11.032  24.411 -71.805  0.00  0.00    +0.114 C 
BRANCH  39  40
ATOM     40  CG  ASN A   3      -9.611  24.498 -71.250  0.00  0.00    +0.222 C 
ATOM     41  OD1 ASN A   3      -9.182  23.667 -70.436  0.00  0.00    -0.275 OA
ATOM     42  ND2 ASN A   3      -8.856  25.505 -71.718  0.00  0.00    -0.329 N 
ATOM     43 HD21 ASN A   3      -7.872  25.609 -71.398  0.00  0.00    +0.145 HD
ATOM     44 HD22 ASN A   3      -9.255  26.181 -72.400  0.00  0.00    +0.145 HD
ENDBRANCH  39  40
ENDBRANCH   1  39
TORSDOF 19
REMARK  Name = ../refined-set-2016/2wva/2wva_pocket.pdb
REMARK  296 active torsions:
REMARK  status: ('A' for Active; 'I' for Inactive)
REMARK    1  A    between atoms: _1  and  _3
REMARK    2  A    between atoms: _3  and  _4
REMARK    3  A    between atoms: _3  and  _6
REMARK    4  A    between atoms: _6  and  _7
REMARK    5  A    between atoms: _10  and  _12
REMARK    6  A    between atoms: _12  and  _13
REMARK    7  A    between atoms: _12  and  _15
REMARK    8  A    between atoms: _15  and  _16
REMARK    9  A    between atoms: _22  and  _24
REMARK   10  A    between atoms: _24  and  _25
REMARK   11  A    between atoms: _24  and  _27
REMARK   12  A    between atoms: _27  and  _28
REMARK   13  A    between atoms: _31  and  _33
REMARK   14  A    between atoms: _33  and  _34
REMARK   15  A    between atoms: _33  and  _36
REMARK   16  A    between atoms: _36  and  _37
REMARK   17  A    between atoms: _42  and  _43
REMARK   18  A    between atoms: _45  and  _47
REMARK   19  A    between atoms: _47  and  _48
REMARK   20  A    between atoms: _47  and  _50
REMARK   21  A    between atoms: _50  and  _51
REMARK   22  A    between atoms: _56  and  _58
REMARK   23  A    between atoms: _58  and  _59
REMARK   24  A    between atoms: _58  and  _61
REMARK   25  A    between atoms: _61  and  _62
REMARK   26  A    between atoms: _62  and  _63
REMARK   27  A    between atoms: _66  and  _68
REMARK   28  A    between atoms: _68  and  _69
REMARK   29  A    between atoms: _68  and  _71
REMARK   30  A    between atoms: _71  and  _72
REMARK   31  A    between atoms: _75  and  _77
REMARK   32  A    between atoms: _77  and  _78
REMARK   33  A    between atoms: _80  and  _82
REMARK   34  A    between atoms: _82  and  _83
REMARK   35  A    between atoms: _82  and  _85
REMARK   36  A    between atoms: _85  and  _86
REMARK   37  A    between atoms: _89  and  _91
REMARK   38  A    between atoms: _91  and  _92
REMARK   39  A    between atoms: _91  and  _94
REMARK   40  A    between atoms: _94  and  _95
REMARK   41  A    between atoms: _97  and  _99
REMARK   42  A    between atoms: _99  and  _100
REMARK   43  A    between atoms: _99  and  _102
REMARK   44  A    between atoms: _102  and  _103
REMARK   45  A    between atoms: _113  and  _115
REMARK   46  A    between atoms: _115  and  _116
REMARK   47  A    between atoms: _115  and  _118
REMARK   48  A    between atoms: _118  and  _119
REMARK   49  A    between atoms: _125  and  _127
REMARK   50  A    between atoms: _127  and  _128
REMARK   51  A    between atoms: _127  and  _130
REMARK   52  A    between atoms: _130  and  _131
REMARK   53  A    between atoms: _136  and  _138
REMARK   54  A    between atoms: _138  and  _139
REMARK   55  A    between atoms: _138  and  _141
REMARK   56  A    between atoms: _141  and  _142
REMARK   57  A    between atoms: _142  and  _143
REMARK   58  A    between atoms: _146  and  _148
REMARK   59  A    between atoms: _148  and  _149
REMARK   60  A    between atoms: _148  and  _151
REMARK   61  A    between atoms: _151  and  _152
REMARK   62  A    between atoms: _162  and  _164
REMARK   63  A    between atoms: _164  and  _165
REMARK   64  A    between atoms: _167  and  _169
REMARK   65  A    between atoms: _169  and  _170
REMARK   66  A    between atoms: _169  and  _172
REMARK   67  A    between atoms: _172  and  _173
REMARK   68  A    between atoms: _178  and  _180
REMARK   69  A    between atoms: _180  and  _181
REMARK   70  A    between atoms: _180  and  _183
REMARK   71  A    between atoms: _183  and  _184
REMARK   72  A    between atoms: _187  and  _189
REMARK   73  A    between atoms: _189  and  _190
REMARK   74  A    between atoms: _192  and  _194
REMARK   75  A    between atoms: _194  and  _195
REMARK   76  A    between atoms: _194  and  _197
REMARK   77  A    between atoms: _197  and  _198
REMARK   78  A    between atoms: _208  and  _210
REMARK   79  A    between atoms: _210  and  _211
REMARK   80  A    between atoms: _210  and  _213
REMARK   81  A    between atoms: _213  and  _214
REMARK   82  A    between atoms: _216  and  _218
REMARK   83  A    between atoms: _218  and  _219
REMARK   84  A    between atoms: _218  and  _221
REMARK   85  A    between atoms: _221  and  _222
REMARK   86  A    between atoms: _222  and  _223
REMARK   87  A    between atoms: _225  and  _227
REMARK   88  A    between atoms: _227  and  _228
REMARK   89  A    between atoms: _227  and  _230
REMARK   90  A    between atoms: _233  and  _235
REMARK   91  A    between atoms: _235  and  _236
REMARK   92  A    between atoms: _238  and  _240
REMARK   93  A    between atoms: _240  and  _241
REMARK   94  A    between atoms: _240  and  _243
REMARK   95  A    between atoms: _243  and  _244
REMARK   96  A    between atoms: _247  and  _249
REMARK   97  A    between atoms: _249  and  _250
REMARK   98  A    between atoms: _252  and  _254
REMARK   99  A    between atoms: _254  and  _255
REMARK  100  A    between atoms: _254  and  _257
REMARK  101  A    between atoms: _257  and  _258
REMARK  102  A    between atoms: _260  and  _262
REMARK  103  A    between atoms: _262  and  _263
REMARK  104  A    between atoms: _262  and  _265
REMARK  105  A    between atoms: _265  and  _266
REMARK  106  A    between atoms: _272  and  _274
REMARK  107  A    between atoms: _274  and  _275
REMARK  108  A    between atoms: _274  and  _277
REMARK  109  A    between atoms: _277  and  _278
REMARK  110  A    between atoms: _278  and  _279
REMARK  111  A    between atoms: _284  and  _286
REMARK  112  A    between atoms: _286  and  _287
REMARK  113  A    between atoms: _286  and  _289
REMARK  114  A    between atoms: _289  and  _290
REMARK  115  A    between atoms: _293  and  _295
REMARK  116  A    between atoms: _295  and  _296
REMARK  117  A    between atoms: _295  and  _298
REMARK  118  A    between atoms: _298  and  _299
REMARK  119  A    between atoms: _302  and  _304
REMARK  120  A    between atoms: _304  and  _305
REMARK  121  A    between atoms: _304  and  _307
REMARK  122  A    between atoms: _307  and  _308
REMARK  123  A    between atoms: _311  and  _313
REMARK  124  A    between atoms: _313  and  _314
REMARK  125  A    between atoms: _313  and  _316
REMARK  126  A    between atoms: _316  and  _317
REMARK  127  A    between atoms: _322  and  _324
REMARK  128  A    between atoms: _324  and  _325
REMARK  129  A    between atoms: _324  and  _327
REMARK  130  A    between atoms: _327  and  _328
REMARK  131  A    between atoms: _333  and  _335
REMARK  132  A    between atoms: _335  and  _336
REMARK  133  A    between atoms: _335  and  _338
REMARK  134  A    between atoms: _338  and  _339
REMARK  135  A    between atoms: _344  and  _345
REMARK  136  A    between atoms: _347  and  _349
REMARK  137  A    between atoms: _349  and  _350
REMARK  138  A    between atoms: _352  and  _354
REMARK  139  A    between atoms: _354  and  _355
REMARK  140  A    between atoms: _354  and  _357
REMARK  141  A    between atoms: _357  and  _358
REMARK  142  A    between atoms: _363  and  _364
REMARK  143  A    between atoms: _366  and  _368
REMARK  144  A    between atoms: _368  and  _369
REMARK  145  A    between atoms: _368  and  _371
REMARK  146  A    between atoms: _371  and  _372
REMARK  147  A    between atoms: _375  and  _377
REMARK  148  A    between atoms: _377  and  _378
REMARK  149  A    between atoms: _377  and  _380
REMARK  150  A    between atoms: _380  and  _381
REMARK  151  A    between atoms: _384  and  _386
REMARK  152  A    between atoms: _386  and  _387
REMARK  153  A    between atoms: _386  and  _389
REMARK  154  A    between atoms: _389  and  _390
REMARK  155  A    between atoms: _390  and  _391
REMARK  156  A    between atoms: _394  and  _396
REMARK  157  A    between atoms: _396  and  _397
REMARK  158  A    between atoms: _396  and  _399
REMARK  159  A    between atoms: _402  and  _404
REMARK  160  A    between atoms: _404  and  _405
REMARK  161  A    between atoms: _404  and  _407
REMARK  162  A    between atoms: _407  and  _408
REMARK  163  A    between atoms: _408  and  _409
REMARK  164  A    between atoms: _411  and  _413
REMARK  165  A    between atoms: _413  and  _414
REMARK  166  A    between atoms: _413  and  _416
REMARK  167  A    between atoms: _416  and  _417
REMARK  168  A    between atoms: _420  and  _422
REMARK  169  A    between atoms: _422  and  _423
REMARK  170  A    between atoms: _422  and  _425
REMARK  171  A    between atoms: _425  and  _426
REMARK  172  A    between atoms: _431  and  _432
REMARK  173  A    between atoms: _434  and  _436
REMARK  174  A    between atoms: _436  and  _437
REMARK  175  A    between atoms: _436  and  _439
REMARK  176  A    between atoms: _439  and  _440
REMARK  177  A    between atoms: _445  and  _447
REMARK  178  A    between atoms: _447  and  _448
REMARK  179  A    between atoms: _447  and  _450
REMARK  180  A    between atoms: _450  and  _451
REMARK  181  A    between atoms: _454  and  _456
REMARK  182  A    between atoms: _456  and  _457
REMARK  183  A    between atoms: _456  and  _459
REMARK  184  A    between atoms: _459  and  _460
REMARK  185  A    between atoms: _465  and  _466
REMARK  186  A    between atoms: _468  and  _470
REMARK  187  A    between atoms: _470  and  _471
REMARK  188  A    between atoms: _470  and  _473
REMARK  189  A    between atoms: _473  and  _474
REMARK  190  A    between atoms: _477  and  _479
REMARK  191  A    between atoms: _479  and  _480
REMARK  192  A    between atoms: _482  and  _484
REMARK  193  A    between atoms: _484  and  _485
REMARK  194  A    between atoms: _484  and  _487
REMARK  195  A    between atoms: _487  and  _488
REMARK  196  A    between atoms: _488  and  _489
REMARK  197  A    between atoms: _489  and  _490
REMARK  198  A    between atoms: _499  and  _501
REMARK  199  A    between atoms: _501  and  _502
REMARK  200  A    between atoms: _501  and  _504
REMARK  201  A    between atoms: _504  and  _505
REMARK  202  A    between atoms: _508  and  _510
REMARK  203  A    between atoms: _510  and  _511
REMARK  204  A    between atoms: _510  and  _513
REMARK  205  A    between atoms: _515  and  _517
REMARK  206  A    between atoms: _517  and  _518
REMARK  207  A    between atoms: _517  and  _520
REMARK  208  A    between atoms: _520  and  _521
REMARK  209  A    between atoms: _524  and  _526
REMARK  210  A    between atoms: _526  and  _527
REMARK  211  A    between atoms: _526  and  _529
REMARK  212  A    between atoms: _529  and  _530
REMARK  213  A    between atoms: _533  and  _535
REMARK  214  A    between atoms: _535  and  _536
REMARK  215  A    between atoms: _535  and  _538
REMARK  216  A    between atoms: _541  and  _543
REMARK  217  A    between atoms: _543  and  _544
REMARK  218  A    between atoms: _547  and  _549
REMARK  219  A    between atoms: _549  and  _550
REMARK  220  A    between atoms: _552  and  _554
REMARK  221  A    between atoms: _554  and  _555
REMARK  222  A    between atoms: _554  and  _557
REMARK  223  A    between atoms: _557  and  _558
REMARK  224  A    between atoms: _561  and  _563
REMARK  225  A    between atoms: _563  and  _564
REMARK  226  A    between atoms: _563  and  _566
REMARK  227  A    between atoms: _566  and  _567
REMARK  228  A    between atoms: _572  and  _573
REMARK  229  A    between atoms: _575  and  _577
REMARK  230  A    between atoms: _577  and  _578
REMARK  231  A    between atoms: _577  and  _580
REMARK  232  A    between atoms: _580  and  _581
REMARK  233  A    between atoms: _586  and  _588
REMARK  234  A    between atoms: _588  and  _589
REMARK  235  A    between atoms: _588  and  _591
REMARK  236  A    between atoms: _591  and  _592
REMARK  237  A    between atoms: _595  and  _597
REMARK  238  A    between atoms: _597  and  _598
REMARK  239  A    between atoms: _597  and  _600
REMARK  240  A    between atoms: _602  and  _604
REMARK  241  A    between atoms: _604  and  _605
REMARK  242  A    between atoms: _604  and  _607
REMARK  243  A    between atoms: _609  and  _611
REMARK  244  A    between atoms: _611  and  _612
REMARK  245  A    between atoms: _611  and  _614
REMARK  246  A    between atoms: _614  and  _615
REMARK  247  A    between atoms: _620  and  _622
REMARK  248  A    between atoms: _622  and  _623
REMARK  249  A    between atoms: _622  and  _625
REMARK  250  A    between atoms: _625  and  _626
REMARK  251  A    between atoms: _626  and  _627
REMARK  252  A    between atoms: _630  and  _632
REMARK  253  A    between atoms: _632  and  _633
REMARK  254  A    between atoms: _632  and  _635
REMARK  255  A    between atoms: _635  and  _636
REMARK  256  A    between atoms: _639  and  _641
REMARK  257  A    between atoms: _641  and  _642
REMARK  258  A    between atoms: _641  and  _644
REMARK  259  A    between atoms: _647  and  _649
REMARK  260  A    between atoms: _649  and  _650
REMARK  261  A    between atoms: _649  and  _652
REMARK  262  A    between atoms: _652  and  _653
REMARK  263  A    between atoms: _656  and  _658
REMARK  264  A    between atoms: _658  and  _659
REMARK  265  A    between atoms: _658  and  _661
REMARK  266  A    between atoms: _661  and  _662
REMARK  267  A    between atoms: _667  and  _668
REMARK  268  A    between atoms: _670  and  _672
REMARK  269  A    between atoms: _672  and  _673
REMARK  270  A    between atoms: _672  and  _675
REMARK  271  A    between atoms: _675  and  _676
REMARK  272  A    between atoms: _678  and  _680
REMARK  273  A    between atoms: _680  and  _681
REMARK  274  A    between atoms: _680  and  _683
REMARK  275  A    between atoms: _686  and  _688
REMARK  276  A    between atoms: _688  and  _689
REMARK  277  A    between atoms: _691  and  _693
REMARK  278  A    between atoms: _693  and  _694
REMARK  279  A    between atoms: _697  and  _699
REMARK  280  A    between atoms: _699  and  _700
REMARK  281  A    between atoms: _699  and  _702
REMARK  282  A    between atoms: _702  and  _703
REMARK  283  A    between atoms: _706  and  _708
REMARK  284  A    between atoms: _708  and  _709
REMARK  285  A    between atoms: _708  and  _711
REMARK  286  A    between atoms: _711  and  _712
REMARK  287  A    between atoms: _714  and  _716
REMARK  288  A    between atoms: _716  and  _717
REMARK  289  A    between atoms: _720  and  _722
REMARK  290  A    between atoms: _722  and  _723
REMARK  291  A    between atoms: _722  and  _725
REMARK  292  A    between atoms: _725  and  _726
REMARK  293  A    between atoms: _731  and  _733
REMARK  294  A    between atoms: _733  and  _734
REMARK  295  A    between atoms: _733  and  _736
REMARK  296  A    between atoms: _736  and  _737
REMARK                            x       y       z     vdW  Elec       q    Type
REMARK                         _______ _______ _______ _____ _____    ______ ____
ROOT
ATOM      1  C   SER A   4     -14.807  15.848 -79.022  0.00  0.00    +0.243 C 
ATOM      2  O   SER A   4     -13.604  15.859 -78.759  0.00  0.00    -0.273 OA
ATOM      3  N   VAL A   5     -15.529  16.951 -79.103  0.00  0.00    -0.297 N 
ATOM      4  H   VAL A   5     -16.540  16.900 -79.340  0.00  0.00    +0.150 HD
ENDROOT
BRANCH   3   5
ATOM      5  CA  VAL A   5     -14.900  18.231 -78.859  0.00  0.00    +0.149 C 
BRANCH   5   6
ATOM      6  C   VAL A   5     -14.417  18.351 -77.404  0.00  0.00    +0.241 C 
ATOM      7  N   GLY A   6     -15.103  17.680 -76.486  0.00  0.00    -0.295 N 
ATOM      8  H   GLY A   6     -15.955  17.155 -76.769  0.00  0.00    +0.150 HD
ATOM      9  O   VAL A   5     -13.429  19.032 -77.117  0.00  0.00    -0.273 OA
BRANCH   7  10
ATOM     10  CA  GLY A   6     -14.686  17.666 -75.094  0.00  0.00    +0.176 C 
BRANCH  10  11
ATOM     11  C   GLY A   6     -13.658  16.574 -74.811  0.00  0.00    +0.243 C 
ATOM     12  O   GLY A   6     -12.591  16.840 -74.250  0.00  0.00    -0.273 OA
ATOM     13  N   ALA A   7     -13.965  15.347 -75.230  0.00  0.00    -0.297 N 
ATOM     14  H   ALA A   7     -14.824  15.202 -75.798  0.00  0.00    +0.150 HD
BRANCH  13  15
ATOM     15  CA  ALA A   7     -13.122  14.209 -74.908  0.00  0.00    +0.149 C 
ATOM     16  CB  ALA A   7     -13.780  12.907 -75.362  0.00  0.00    +0.031 C 
BRANCH  15  17
ATOM     17  C   ALA A   7     -11.701  14.330 -75.463  0.00  0.00    +0.241 C 
ATOM     18  O   ALA A   7     -10.741  14.122 -74.730  0.00  0.00    -0.273 OA
ATOM     19  N   LEU A   8     -11.564  14.683 -76.745  0.00  0.00    -0.297 N 
ATOM     20  H   LEU A   8     -12.404  14.975 -77.284  0.00  0.00    +0.150 HD
BRANCH  19  21
ATOM     21  CA  LEU A   8     -10.251  14.668 -77.411  0.00  0.00    +0.149 C 
BRANCH  21  22
ATOM     22  C   LEU A   8      -9.175  15.491 -76.703  0.00  0.00    +0.241 C 
ATOM     23  N   SER A   9      -9.462  16.740 -76.364  0.00  0.00    -0.295 N 
ATOM     24  H   SER A   9     -10.377  17.163 -76.622  0.00  0.00    +0.150 HD
ATOM     25  O   LEU A   8      -8.079  14.989 -76.445  0.00  0.00    -0.273 OA
BRANCH  23  26
ATOM     26  CA  SER A   9      -8.469  17.511 -75.621  0.00  0.00    +0.178 C 
BRANCH  26  27
ATOM     27  C   SER A   9      -8.254  16.900 -74.219  0.00  0.00    +0.243 C 
ATOM     28  N   ALA A  10      -9.326  16.404 -73.605  0.00  0.00    -0.298 N 
ATOM     29  H   ALA A  10     -10.254  16.450 -74.073  0.00  0.00    +0.150 HD
ATOM     30  O   SER A   9      -7.121  16.846 -73.717  0.00  0.00    -0.273 OA
BRANCH  28  31
ATOM     31  CA  ALA A  10      -9.213  15.790 -72.270  0.00  0.00    +0.137 C 
ATOM     32  CB  ALA A  10     -10.598  15.425 -71.713  0.00  0.00    +0.030 C 
BRANCH  31  33
ATOM     33  C   ALA A  10      -8.297  14.563 -72.312  0.00  0.00    +0.227 C 
ATOM     34  O   ALA A  10      -7.608  14.259 -71.336  0.00  0.00    -0.286 OA
ENDBRANCH  31  33
ENDBRANCH  28  31
ENDBRANCH  26  27
BRANCH  26  35
ATOM     35  CB  SER A   9      -8.892  18.978 -75.526  0.00  0.00    +0.166 C 
BRANCH  35  36
ATOM     36  OG  SER A   9     -10.216  19.062 -75.016  0.00  0.00    -0.380 OA
ATOM     37  H   SER A   9     -10.486  20.013 -74.956  0.00  0.00    +0.211 HD
ENDBRANCH  35  36
ENDBRANCH  26  35
ENDBRANCH  23  26
ENDBRANCH  21  22
BRANCH  21  38
ATOM     38  CB  LEU A   8     -10.346  15.014 -78.914  0.00  0.00    +0.029 C 
BRANCH  38  39
ATOM     39  CG  LEU A   8     -10.482  13.783 -79.825  0.00  0.00    +0.002 C 
ATOM     40  CD2 LEU A   8     -11.660  12.911 -79.441  0.00  0.00    +0.000 C 
ATOM     41  CD1 LEU A   8     -10.626  14.159 -81.292  0.00  0.00    +0.000 C 
ENDBRANCH  38  39
ENDBRANCH  21  38
ENDBRANCH  19  21
ENDBRANCH  15  17
ENDBRANCH  13  15
ENDBRANCH  10  11
ENDBRANCH   7  10
ENDBRANCH   5   6
BRANCH   5  42
ATOM     42  CB  VAL A   5     -15.807  19.400 -79.248  0.00  0.00    +0.027 C 
ATOM     43  CG2 VAL A   5     -17.156  19.342 -78.485  0.00  0.00    +0.002 C 
ATOM     44  CG1 VAL A   5     -15.987  19.436 -80.779  0.00  0.00    +0.002 C 
ENDBRANCH   5  42
ENDBRANCH   3   5
BRANCH   1  45
ATOM     45  CA  SER A   4     -15.529  14.560 -79.308  0.00  0.00    +0.178 C 
BRANCH  45  47
ATOM     46  C   TYR A   3     -17.620  14.711 -77.982  0.00  0.00    +0.241 C 
ATOM     47  N   SER A   4     -16.461  14.104 -78.263  0.00  0.00    -0.295 N 
ATOM     48  H   SER A   4     -16.203  13.261 -77.711  0.00  0.00    +0.150 HD
ATOM     49  O   TYR A   3     -17.932  15.816 -78.418  0.00  0.00    -0.273 OA
BRANCH  46  50
ATOM     50  CA  TYR A   3     -18.560  13.966 -77.052  0.00  0.00    +0.153 C 
BRANCH  50  53
ATOM     51  C   THR A   2     -18.325  15.428 -75.129  0.00  0.00    +0.243 C 
ATOM     52  O   THR A   2     -17.079  15.403 -75.200  0.00  0.00    -0.273 OA
ATOM     53  N   TYR A   3     -19.110  14.831 -76.016  0.00  0.00    -0.297 N 
ATOM     54  H   TYR A   3     -20.138  14.983 -75.971  0.00  0.00    +0.150 HD
BRANCH  51  55
ATOM     55  CA  THR A   2     -19.022  16.172 -73.993  0.00  0.00    +0.176 C 
BRANCH  55  58
ATOM     56  C   VAL A   1     -18.014  15.626 -71.858  0.00  0.00    +0.238 C 
ATOM     57  O   VAL A   1     -18.702  14.603 -71.754  0.00  0.00    -0.274 OA
ATOM     58  N   THR A   2     -18.083  16.446 -72.904  0.00  0.00    -0.295 N 
ATOM     59  H   THR A   2     -17.468  17.284 -72.948  0.00  0.00    +0.150 HD
BRANCH  56  60
ATOM     60  CA  VAL A   1     -17.027  16.005 -70.762  0.00  0.00    +0.145 C 
BRANCH  60  61
ATOM     61  CB  VAL A   1     -15.580  15.974 -71.335  0.00  0.00    +0.025 C 
ATOM     62  CG2 VAL A   1     -14.589  16.426 -70.275  0.00  0.00    +0.002 C 
ATOM     63  CG1 VAL A   1     -15.229  14.578 -71.841  0.00  0.00    +0.002 C 
ENDBRANCH  60  61
BRANCH  60  64
ATOM     64  N   VAL A   1     -17.182  15.113 -69.622  0.00  0.00    -0.238 NA
ATOM     65  H   VAL A   1     -17.266  14.088 -69.773  0.00  0.00    +0.142 HD
ENDBRANCH  60  64
ENDBRANCH  56  60
ENDBRANCH  55  58
BRANCH  55  66
ATOM     66  CB  THR A   2     -19.718  17.455 -74.490  0.00  0.00    +0.137 C 
ATOM     67  CG2 THR A   2     -18.768  18.345 -75.262  0.00  0.00    +0.034 C 
BRANCH  66  68
ATOM     68  OG1 THR A   2     -20.818  17.094 -75.319  0.00  0.00    -0.382 OA
ATOM     69  HG1 THR A   2     -21.270  17.914 -75.642  0.00  0.00    +0.210 HD
ENDBRANCH  66  68
ENDBRANCH  55  66
ENDBRANCH  51  55
ENDBRANCH  50  53
BRANCH  50  70
ATOM     70  CB  TYR A   3     -19.688  13.313 -77.845  0.00  0.00    +0.055 C 
BRANCH  70  71
ATOM     71  CG  TYR A   3     -19.216  12.214 -78.765  0.00  0.00    -0.020 A 
ATOM     72  CD2 TYR A   3     -18.761  11.005 -78.255  0.00  0.00    -0.001 A 
ATOM     73  CE2 TYR A   3     -18.309   9.999 -79.091  0.00  0.00    +0.036 A 
ATOM     74  CZ  TYR A   3     -18.323  10.188 -80.457  0.00  0.00    +0.134 A 
ATOM     75  CE1 TYR A   3     -18.778  11.378 -80.995  0.00  0.00    +0.036 A 
ATOM     76  CD1 TYR A   3     -19.220  12.385 -80.143  0.00  0.00    -0.001 A 
BRANCH  74  77
ATOM     77  OH  TYR A   3     -17.873   9.181 -81.299  0.00  0.00    -0.506 OA
ATOM     78  HH  TYR A   3     -17.585   8.404 -80.758  0.00  0.00    +0.292 HD
ENDBRANCH  74  77
ENDBRANCH  70  71
ENDBRANCH  50  70
ENDBRANCH  46  50
ENDBRANCH  45  47
BRANCH  45  79
ATOM     79  CB  SER A   4     -16.245  14.688 -80.650  0.00  0.00    +0.166 C 
BRANCH  79  80
ATOM     80  OG  SER A   4     -15.782  13.702 -81.540  0.00  0.00    -0.380 OA
ATOM     81  H   SER A   4     -16.252  13.794 -82.406  0.00  0.00    +0.211 HD
ENDBRANCH  79  80
ENDBRANCH  45  79
ENDBRANCH   1  45
TORSDOF 33
REMARK  Name = ../refined-set-2016/2wva/2wva_pocket.pdb
REMARK  296 active torsions:
REMARK  status: ('A' for Active; 'I' for Inactive)
REMARK    1  A    between atoms: _1  and  _3
REMARK    2  A    between atoms: _3  and  _4
REMARK    3  A    between atoms: _3  and  _6
REMARK    4  A    between atoms: _6  and  _7
REMARK    5  A    between atoms: _10  and  _12
REMARK    6  A    between atoms: _12  and  _13
REMARK    7  A    between atoms: _12  and  _15
REMARK    8  A    between atoms: _15  and  _16
REMARK    9  A    between atoms: _22  and  _24
REMARK   10  A    between atoms: _24  and  _25
REMARK   11  A    between atoms: _24  and  _27
REMARK   12  A    between atoms: _27  and  _28
REMARK   13  A    between atoms: _31  and  _33
REMARK   14  A    between atoms: _33  and  _34
REMARK   15  A    between atoms: _33  and  _36
REMARK   16  A    between atoms: _36  and  _37
REMARK   17  A    between atoms: _42  and  _43
REMARK   18  A    between atoms: _45  and  _47
REMARK   19  A    between atoms: _47  and  _48
REMARK   20  A    between atoms: _47  and  _50
REMARK   21  A    between atoms: _50  and  _51
REMARK   22  A    between atoms: _56  and  _58
REMARK   23  A    between atoms: _58  and  _59
REMARK   24  A    between atoms: _58  and  _61
REMARK   25  A    between atoms: _61  and  _62
REMARK   26  A    between atoms: _62  and  _63
REMARK   27  A    between atoms: _66  and  _68
REMARK   28  A    between atoms: _68  and  _69
REMARK   29  A    between atoms: _68  and  _71
REMARK   30  A    between atoms: _71  and  _72
REMARK   31  A    between atoms: _75  and  _77
REMARK   32  A    between atoms: _77  and  _78
REMARK   33  A    between atoms: _80  and  _82
REMARK   34  A    between atoms: _82  and  _83
REMARK   35  A    between atoms: _82  and  _85
REMARK   36  A    between atoms: _85  and  _86
REMARK   37  A    between atoms: _89  and  _91
REMARK   38  A    between atoms: _91  and  _92
REMARK   39  A    between atoms: _91  and  _94
REMARK   40  A    between atoms: _94  and  _95
REMARK   41  A    between atoms: _97  and  _99
REMARK   42  A    between atoms: _99  and  _100
REMARK   43  A    between atoms: _99  and  _102
REMARK   44  A    between atoms: _102  and  _103
REMARK   45  A    between atoms: _113  and  _115
REMARK   46  A    between atoms: _115  and  _116
REMARK   47  A    between atoms: _115  and  _118
REMARK   48  A    between atoms: _118  and  _119
REMARK   49  A    between atoms: _125  and  _127
REMARK   50  A    between atoms: _127  and  _128
REMARK   51  A    between atoms: _127  and  _130
REMARK   52  A    between atoms: _130  and  _131
REMARK   53  A    between atoms: _136  and  _138
REMARK   54  A    between atoms: _138  and  _139
REMARK   55  A    between atoms: _138  and  _141
REMARK   56  A    between atoms: _141  and  _142
REMARK   57  A    between atoms: _142  and  _143
REMARK   58  A    between atoms: _146  and  _148
REMARK   59  A    between atoms: _148  and  _149
REMARK   60  A    between atoms: _148  and  _151
REMARK   61  A    between atoms: _151  and  _152
REMARK   62  A    between atoms: _162  and  _164
REMARK   63  A    between atoms: _164  and  _165
REMARK   64  A    between atoms: _167  and  _169
REMARK   65  A    between atoms: _169  and  _170
REMARK   66  A    between atoms: _169  and  _172
REMARK   67  A    between atoms: _172  and  _173
REMARK   68  A    between atoms: _178  and  _180
REMARK   69  A    between atoms: _180  and  _181
REMARK   70  A    between atoms: _180  and  _183
REMARK   71  A    between atoms: _183  and  _184
REMARK   72  A    between atoms: _187  and  _189
REMARK   73  A    between atoms: _189  and  _190
REMARK   74  A    between atoms: _192  and  _194
REMARK   75  A    between atoms: _194  and  _195
REMARK   76  A    between atoms: _194  and  _197
REMARK   77  A    between atoms: _197  and  _198
REMARK   78  A    between atoms: _208  and  _210
REMARK   79  A    between atoms: _210  and  _211
REMARK   80  A    between atoms: _210  and  _213
REMARK   81  A    between atoms: _213  and  _214
REMARK   82  A    between atoms: _216  and  _218
REMARK   83  A    between atoms: _218  and  _219
REMARK   84  A    between atoms: _218  and  _221
REMARK   85  A    between atoms: _221  and  _222
REMARK   86  A    between atoms: _222  and  _223
REMARK   87  A    between atoms: _225  and  _227
REMARK   88  A    between atoms: _227  and  _228
REMARK   89  A    between atoms: _227  and  _230
REMARK   90  A    between atoms: _233  and  _235
REMARK   91  A    between atoms: _235  and  _236
REMARK   92  A    between atoms: _238  and  _240
REMARK   93  A    between atoms: _240  and  _241
REMARK   94  A    between atoms: _240  and  _243
REMARK   95  A    between atoms: _243  and  _244
REMARK   96  A    between atoms: _247  and  _249
REMARK   97  A    between atoms: _249  and  _250
REMARK   98  A    between atoms: _252  and  _254
REMARK   99  A    between atoms: _254  and  _255
REMARK  100  A    between atoms: _254  and  _257
REMARK  101  A    between atoms: _257  and  _258
REMARK  102  A    between atoms: _260  and  _262
REMARK  103  A    between atoms: _262  and  _263
REMARK  104  A    between atoms: _262  and  _265
REMARK  105  A    between atoms: _265  and  _266
REMARK  106  A    between atoms: _272  and  _274
REMARK  107  A    between atoms: _274  and  _275
REMARK  108  A    between atoms: _274  and  _277
REMARK  109  A    between atoms: _277  and  _278
REMARK  110  A    between atoms: _278  and  _279
REMARK  111  A    between atoms: _284  and  _286
REMARK  112  A    between atoms: _286  and  _287
REMARK  113  A    between atoms: _286  and  _289
REMARK  114  A    between atoms: _289  and  _290
REMARK  115  A    between atoms: _293  and  _295
REMARK  116  A    between atoms: _295  and  _296
REMARK  117  A    between atoms: _295  and  _298
REMARK  118  A    between atoms: _298  and  _299
REMARK  119  A    between atoms: _302  and  _304
REMARK  120  A    between atoms: _304  and  _305
REMARK  121  A    between atoms: _304  and  _307
REMARK  122  A    between atoms: _307  and  _308
REMARK  123  A    between atoms: _311  and  _313
REMARK  124  A    between atoms: _313  and  _314
REMARK  125  A    between atoms: _313  and  _316
REMARK  126  A    between atoms: _316  and  _317
REMARK  127  A    between atoms: _322  and  _324
REMARK  128  A    between atoms: _324  and  _325
REMARK  129  A    between atoms: _324  and  _327
REMARK  130  A    between atoms: _327  and  _328
REMARK  131  A    between atoms: _333  and  _335
REMARK  132  A    between atoms: _335  and  _336
REMARK  133  A    between atoms: _335  and  _338
REMARK  134  A    between atoms: _338  and  _339
REMARK  135  A    between atoms: _344  and  _345
REMARK  136  A    between atoms: _347  and  _349
REMARK  137  A    between atoms: _349  and  _350
REMARK  138  A    between atoms: _352  and  _354
REMARK  139  A    between atoms: _354  and  _355
REMARK  140  A    between atoms: _354  and  _357
REMARK  141  A    between atoms: _357  and  _358
REMARK  142  A    between atoms: _363  and  _364
REMARK  143  A    between atoms: _366  and  _368
REMARK  144  A    between atoms: _368  and  _369
REMARK  145  A    between atoms: _368  and  _371
REMARK  146  A    between atoms: _371  and  _372
REMARK  147  A    between atoms: _375  and  _377
REMARK  148  A    between atoms: _377  and  _378
REMARK  149  A    between atoms: _377  and  _380
REMARK  150  A    between atoms: _380  and  _381
REMARK  151  A    between atoms: _384  and  _386
REMARK  152  A    between atoms: _386  and  _387
REMARK  153  A    between atoms: _386  and  _389
REMARK  154  A    between atoms: _389  and  _390
REMARK  155  A    between atoms: _390  and  _391
REMARK  156  A    between atoms: _394  and  _396
REMARK  157  A    between atoms: _396  and  _397
REMARK  158  A    between atoms: _396  and  _399
REMARK  159  A    between atoms: _402  and  _404
REMARK  160  A    between atoms: _404  and  _405
REMARK  161  A    between atoms: _404  and  _407
REMARK  162  A    between atoms: _407  and  _408
REMARK  163  A    between atoms: _408  and  _409
REMARK  164  A    between atoms: _411  and  _413
REMARK  165  A    between atoms: _413  and  _414
REMARK  166  A    between atoms: _413  and  _416
REMARK  167  A    between atoms: _416  and  _417
REMARK  168  A    between atoms: _420  and  _422
REMARK  169  A    between atoms: _422  and  _423
REMARK  170  A    between atoms: _422  and  _425
REMARK  171  A    between atoms: _425  and  _426
REMARK  172  A    between atoms: _431  and  _432
REMARK  173  A    between atoms: _434  and  _436
REMARK  174  A    between atoms: _436  and  _437
REMARK  175  A    between atoms: _436  and  _439
REMARK  176  A    between atoms: _439  and  _440
REMARK  177  A    between atoms: _445  and  _447
REMARK  178  A    between atoms: _447  and  _448
REMARK  179  A    between atoms: _447  and  _450
REMARK  180  A    between atoms: _450  and  _451
REMARK  181  A    between atoms: _454  and  _456
REMARK  182  A    between atoms: _456  and  _457
REMARK  183  A    between atoms: _456  and  _459
REMARK  184  A    between atoms: _459  and  _460
REMARK  185  A    between atoms: _465  and  _466
REMARK  186  A    between atoms: _468  and  _470
REMARK  187  A    between atoms: _470  and  _471
REMARK  188  A    between atoms: _470  and  _473
REMARK  189  A    between atoms: _473  and  _474
REMARK  190  A    between atoms: _477  and  _479
REMARK  191  A    between atoms: _479  and  _480
REMARK  192  A    between atoms: _482  and  _484
REMARK  193  A    between atoms: _484  and  _485
REMARK  194  A    between atoms: _484  and  _487
REMARK  195  A    between atoms: _487  and  _488
REMARK  196  A    between atoms: _488  and  _489
REMARK  197  A    between atoms: _489  and  _490
REMARK  198  A    between atoms: _499  and  _501
REMARK  199  A    between atoms: _501  and  _502
REMARK  200  A    between atoms: _501  and  _504
REMARK  201  A    between atoms: _504  and  _505
REMARK  202  A    between atoms: _508  and  _510
REMARK  203  A    between atoms: _510  and  _511
REMARK  204  A    between atoms: _510  and  _513
REMARK  205  A    between atoms: _515  and  _517
REMARK  206  A    between atoms: _517  and  _518
REMARK  207  A    between atoms: _517  and  _520
REMARK  208  A    between atoms: _520  and  _521
REMARK  209  A    between atoms: _524  and  _526
REMARK  210  A    between atoms: _526  and  _527
REMARK  211  A    between atoms: _526  and  _529
REMARK  212  A    between atoms: _529  and  _530
REMARK  213  A    between atoms: _533  and  _535
REMARK  214  A    between atoms: _535  and  _536
REMARK  215  A    between atoms: _535  and  _538
REMARK  216  A    between atoms: _541  and  _543
REMARK  217  A    between atoms: _543  and  _544
REMARK  218  A    between atoms: _547  and  _549
REMARK  219  A    between atoms: _549  and  _550
REMARK  220  A    between atoms: _552  and  _554
REMARK  221  A    between atoms: _554  and  _555
REMARK  222  A    between atoms: _554  and  _557
REMARK  223  A    between atoms: _557  and  _558
REMARK  224  A    between atoms: _561  and  _563
REMARK  225  A    between atoms: _563  and  _564
REMARK  226  A    between atoms: _563  and  _566
REMARK  227  A    between atoms: _566  and  _567
REMARK  228  A    between atoms: _572  and  _573
REMARK  229  A    between atoms: _575  and  _577
REMARK  230  A    between atoms: _577  and  _578
REMARK  231  A    between atoms: _577  and  _580
REMARK  232  A    between atoms: _580  and  _581
REMARK  233  A    between atoms: _586  and  _588
REMARK  234  A    between atoms: _588  and  _589
REMARK  235  A    between atoms: _588  and  _591
REMARK  236  A    between atoms: _591  and  _592
REMARK  237  A    between atoms: _595  and  _597
REMARK  238  A    between atoms: _597  and  _598
REMARK  239  A    between atoms: _597  and  _600
REMARK  240  A    between atoms: _602  and  _604
REMARK  241  A    between atoms: _604  and  _605
REMARK  242  A    between atoms: _604  and  _607
REMARK  243  A    between atoms: _609  and  _611
REMARK  244  A    between atoms: _611  and  _612
REMARK  245  A    between atoms: _611  and  _614
REMARK  246  A    between atoms: _614  and  _615
REMARK  247  A    between atoms: _620  and  _622
REMARK  248  A    between atoms: _622  and  _623
REMARK  249  A    between atoms: _622  and  _625
REMARK  250  A    between atoms: _625  and  _626
REMARK  251  A    between atoms: _626  and  _627
REMARK  252  A    between atoms: _630  and  _632
REMARK  253  A    between atoms: _632  and  _633
REMARK  254  A    between atoms: _632  and  _635
REMARK  255  A    between atoms: _635  and  _636
REMARK  256  A    between atoms: _639  and  _641
REMARK  257  A    between atoms: _641  and  _642
REMARK  258  A    between atoms: _641  and  _644
REMARK  259  A    between atoms: _647  and  _649
REMARK  260  A    between atoms: _649  and  _650
REMARK  261  A    between atoms: _649  and  _652
REMARK  262  A    between atoms: _652  and  _653
REMARK  263  A    between atoms: _656  and  _658
REMARK  264  A    between atoms: _658  and  _659
REMARK  265  A    between atoms: _658  and  _661
REMARK  266  A    between atoms: _661  and  _662
REMARK  267  A    between atoms: _667  and  _668
REMARK  268  A    between atoms: _670  and  _672
REMARK  269  A    between atoms: _672  and  _673
REMARK  270  A    between atoms: _672  and  _675
REMARK  271  A    between atoms: _675  and  _676
REMARK  272  A    between atoms: _678  and  _680
REMARK  273  A    between atoms: _680  and  _681
REMARK  274  A    between atoms: _680  and  _683
REMARK  275  A    between atoms: _686  and  _688
REMARK  276  A    between atoms: _688  and  _689
REMARK  277  A    between atoms: _691  and  _693
REMARK  278  A    between atoms: _693  and  _694
REMARK  279  A    between atoms: _697  and  _699
REMARK  280  A    between atoms: _699  and  _700
REMARK  281  A    between atoms: _699  and  _702
REMARK  282  A    between atoms: _702  and  _703
REMARK  283  A    between atoms: _706  and  _708
REMARK  284  A    between atoms: _708  and  _709
REMARK  285  A    between atoms: _708  and  _711
REMARK  286  A    between atoms: _711  and  _712
REMARK  287  A    between atoms: _714  and  _716
REMARK  288  A    between atoms: _716  and  _717
REMARK  289  A    between atoms: _720  and  _722
REMARK  290  A    between atoms: _722  and  _723
REMARK  291  A    between atoms: _722  and  _725
REMARK  292  A    between atoms: _725  and  _726
REMARK  293  A    between atoms: _731  and  _733
REMARK  294  A    between atoms: _733  and  _734
REMARK  295  A    between atoms: _733  and  _736
REMARK  296  A    between atoms: _736  and  _737
REMARK                            x       y       z     vdW  Elec       q    Type
REMARK                         _______ _______ _______ _____ _____    ______ ____
ROOT
ATOM      1  C   HIS A   1     -21.627  17.128 -83.658  0.00  0.00    +0.239 C 
ATOM      2  O   HIS A   1     -21.812  16.131 -82.967  0.00  0.00    -0.274 OA
ATOM      3  N   HIS A   2     -20.491  17.807 -83.639  0.00  0.00    -0.298 N 
ATOM      4  H   HIS A   2     -20.417  18.663 -84.225  0.00  0.00    +0.150 HD
ENDROOT
BRANCH   1   5
ATOM      5  CA  HIS A   1     -22.718  17.649 -84.611  0.00  0.00    +0.151 C 
BRANCH   5   6
ATOM      6  N   HIS A   1     -23.560  16.546 -85.041  0.00  0.00    -0.238 NA
ATOM      7  H   HIS A   1     -24.589  16.593 -84.896  0.00  0.00    +0.142 HD
ENDBRANCH   5   6
BRANCH   5   8
ATOM      8  CB  HIS A   1     -23.556  18.756 -83.953  0.00  0.00    +0.074 C 
BRANCH   8   9
ATOM      9  CG  HIS A   1     -24.041  18.411 -82.581  0.00  0.00    +0.082 A 
ATOM     10  CD2 HIS A   1     -23.654  18.858 -81.361  0.00  0.00    +0.115 A 
ATOM     11  NE2 HIS A   1     -24.427  18.214 -80.429  0.00  0.00    -0.221 NA
ATOM     12  CE1 HIS A   1     -25.266  17.409 -81.050  0.00  0.00    +0.199 A 
ATOM     13  ND1 HIS A   1     -25.058  17.508 -82.350  0.00  0.00    -0.227 NA
ENDBRANCH   8   9
ENDBRANCH   5   8
ENDBRANCH   1   5
BRANCH   3  14
ATOM     14  CA  HIS A   2     -19.338  17.414 -82.837  0.00  0.00    +0.143 C 
BRANCH  14  15
ATOM     15  C   HIS A   2     -18.587  16.198 -83.351  0.00  0.00    +0.227 C 
ATOM     16  O   HIS A   2     -17.599  15.818 -82.761  0.00  0.00    -0.286 OA
ENDBRANCH  14  15
BRANCH  14  17
ATOM     17  CB  HIS A   2     -19.704  17.173 -81.368  0.00  0.00    +0.075 C 
BRANCH  17  18
ATOM     18  CG  HIS A   2     -20.162  18.402 -80.648  0.00  0.00    +0.082 A 
ATOM     19  CD2 HIS A   2     -20.859  18.547 -79.499  0.00  0.00    +0.115 A 
ATOM     20  NE2 HIS A   2     -21.011  19.895 -79.283  0.00  0.00    -0.221 NA
ATOM     21  CE1 HIS A   2     -20.428  20.557 -80.270  0.00  0.00    +0.199 A 
ATOM     22  ND1 HIS A   2     -19.899  19.677 -81.101  0.00  0.00    -0.227 NA
ENDBRANCH  17  18
ENDBRANCH  14  17
ENDBRANCH   3  14
TORSDOF 8
REMARK  Name = ../refined-set-2016/2wva/2wva_pocket.pdb
REMARK  296 active torsions:
REMARK  status: ('A' for Active; 'I' for Inactive)
REMARK    1  A    between atoms: _1  and  _3
REMARK    2  A    between atoms: _3  and  _4
REMARK    3  A    between atoms: _3  and  _6
REMARK    4  A    between atoms: _6  and  _7
REMARK    5  A    between atoms: _10  and  _12
REMARK    6  A    between atoms: _12  and  _13
REMARK    7  A    between atoms: _12  and  _15
REMARK    8  A    between atoms: _15  and  _16
REMARK    9  A    between atoms: _22  and  _24
REMARK   10  A    between atoms: _24  and  _25
REMARK   11  A    between atoms: _24  and  _27
REMARK   12  A    between atoms: _27  and  _28
REMARK   13  A    between atoms: _31  and  _33
REMARK   14  A    between atoms: _33  and  _34
REMARK   15  A    between atoms: _33  and  _36
REMARK   16  A    between atoms: _36  and  _37
REMARK   17  A    between atoms: _42  and  _43
REMARK   18  A    between atoms: _45  and  _47
REMARK   19  A    between atoms: _47  and  _48
REMARK   20  A    between atoms: _47  and  _50
REMARK   21  A    between atoms: _50  and  _51
REMARK   22  A    between atoms: _56  and  _58
REMARK   23  A    between atoms: _58  and  _59
REMARK   24  A    between atoms: _58  and  _61
REMARK   25  A    between atoms: _61  and  _62
REMARK   26  A    between atoms: _62  and  _63
REMARK   27  A    between atoms: _66  and  _68
REMARK   28  A    between atoms: _68  and  _69
REMARK   29  A    between atoms: _68  and  _71
REMARK   30  A    between atoms: _71  and  _72
REMARK   31  A    between atoms: _75  and  _77
REMARK   32  A    between atoms: _77  and  _78
REMARK   33  A    between atoms: _80  and  _82
REMARK   34  A    between atoms: _82  and  _83
REMARK   35  A    between atoms: _82  and  _85
REMARK   36  A    between atoms: _85  and  _86
REMARK   37  A    between atoms: _89  and  _91
REMARK   38  A    between atoms: _91  and  _92
REMARK   39  A    between atoms: _91  and  _94
REMARK   40  A    between atoms: _94  and  _95
REMARK   41  A    between atoms: _97  and  _99
REMARK   42  A    between atoms: _99  and  _100
REMARK   43  A    between atoms: _99  and  _102
REMARK   44  A    between atoms: _102  and  _103
REMARK   45  A    between atoms: _113  and  _115
REMARK   46  A    between atoms: _115  and  _116
REMARK   47  A    between atoms: _115  and  _118
REMARK   48  A    between atoms: _118  and  _119
REMARK   49  A    between atoms: _125  and  _127
REMARK   50  A    between atoms: _127  and  _128
REMARK   51  A    between atoms: _127  and  _130
REMARK   52  A    between atoms: _130  and  _131
REMARK   53  A    between atoms: _136  and  _138
REMARK   54  A    between atoms: _138  and  _139
REMARK   55  A    between atoms: _138  and  _141
REMARK   56  A    between atoms: _141  and  _142
REMARK   57  A    between atoms: _142  and  _143
REMARK   58  A    between atoms: _146  and  _148
REMARK   59  A    between atoms: _148  and  _149
REMARK   60  A    between atoms: _148  and  _151
REMARK   61  A    between atoms: _151  and  _152
REMARK   62  A    between atoms: _162  and  _164
REMARK   63  A    between atoms: _164  and  _165
REMARK   64  A    between atoms: _167  and  _169
REMARK   65  A    between atoms: _169  and  _170
REMARK   66  A    between atoms: _169  and  _172
REMARK   67  A    between atoms: _172  and  _173
REMARK   68  A    between atoms: _178  and  _180
REMARK   69  A    between atoms: _180  and  _181
REMARK   70  A    between atoms: _180  and  _183
REMARK   71  A    between atoms: _183  and  _184
REMARK   72  A    between atoms: _187  and  _189
REMARK   73  A    between atoms: _189  and  _190
REMARK   74  A    between atoms: _192  and  _194
REMARK   75  A    between atoms: _194  and  _195
REMARK   76  A    between atoms: _194  and  _197
REMARK   77  A    between atoms: _197  and  _198
REMARK   78  A    between atoms: _208  and  _210
REMARK   79  A    between atoms: _210  and  _211
REMARK   80  A    between atoms: _210  and  _213
REMARK   81  A    between atoms: _213  and  _214
REMARK   82  A    between atoms: _216  and  _218
REMARK   83  A    between atoms: _218  and  _219
REMARK   84  A    between atoms: _218  and  _221
REMARK   85  A    between atoms: _221  and  _222
REMARK   86  A    between atoms: _222  and  _223
REMARK   87  A    between atoms: _225  and  _227
REMARK   88  A    between atoms: _227  and  _228
REMARK   89  A    between atoms: _227  and  _230
REMARK   90  A    between atoms: _233  and  _235
REMARK   91  A    between atoms: _235  and  _236
REMARK   92  A    between atoms: _238  and  _240
REMARK   93  A    between atoms: _240  and  _241
REMARK   94  A    between atoms: _240  and  _243
REMARK   95  A    between atoms: _243  and  _244
REMARK   96  A    between atoms: _247  and  _249
REMARK   97  A    between atoms: _249  and  _250
REMARK   98  A    between atoms: _252  and  _254
REMARK   99  A    between atoms: _254  and  _255
REMARK  100  A    between atoms: _254  and  _257
REMARK  101  A    between atoms: _257  and  _258
REMARK  102  A    between atoms: _260  and  _262
REMARK  103  A    between atoms: _262  and  _263
REMARK  104  A    between atoms: _262  and  _265
REMARK  105  A    between atoms: _265  and  _266
REMARK  106  A    between atoms: _272  and  _274
REMARK  107  A    between atoms: _274  and  _275
REMARK  108  A    between atoms: _274  and  _277
REMARK  109  A    between atoms: _277  and  _278
REMARK  110  A    between atoms: _278  and  _279
REMARK  111  A    between atoms: _284  and  _286
REMARK  112  A    between atoms: _286  and  _287
REMARK  113  A    between atoms: _286  and  _289
REMARK  114  A    between atoms: _289  and  _290
REMARK  115  A    between atoms: _293  and  _295
REMARK  116  A    between atoms: _295  and  _296
REMARK  117  A    between atoms: _295  and  _298
REMARK  118  A    between atoms: _298  and  _299
REMARK  119  A    between atoms: _302  and  _304
REMARK  120  A    between atoms: _304  and  _305
REMARK  121  A    between atoms: _304  and  _307
REMARK  122  A    between atoms: _307  and  _308
REMARK  123  A    between atoms: _311  and  _313
REMARK  124  A    between atoms: _313  and  _314
REMARK  125  A    between atoms: _313  and  _316
REMARK  126  A    between atoms: _316  and  _317
REMARK  127  A    between atoms: _322  and  _324
REMARK  128  A    between atoms: _324  and  _325
REMARK  129  A    between atoms: _324  and  _327
REMARK  130  A    between atoms: _327  and  _328
REMARK  131  A    between atoms: _333  and  _335
REMARK  132  A    between atoms: _335  and  _336
REMARK  133  A    between atoms: _335  and  _338
REMARK  134  A    between atoms: _338  and  _339
REMARK  135  A    between atoms: _344  and  _345
REMARK  136  A    between atoms: _347  and  _349
REMARK  137  A    between atoms: _349  and  _350
REMARK  138  A    between atoms: _352  and  _354
REMARK  139  A    between atoms: _354  and  _355
REMARK  140  A    between atoms: _354  and  _357
REMARK  141  A    between atoms: _357  and  _358
REMARK  142  A    between atoms: _363  and  _364
REMARK  143  A    between atoms: _366  and  _368
REMARK  144  A    between atoms: _368  and  _369
REMARK  145  A    between atoms: _368  and  _371
REMARK  146  A    between atoms: _371  and  _372
REMARK  147  A    between atoms: _375  and  _377
REMARK  148  A    between atoms: _377  and  _378
REMARK  149  A    between atoms: _377  and  _380
REMARK  150  A    between atoms: _380  and  _381
REMARK  151  A    between atoms: _384  and  _386
REMARK  152  A    between atoms: _386  and  _387
REMARK  153  A    between atoms: _386  and  _389
REMARK  154  A    between atoms: _389  and  _390
REMARK  155  A    between atoms: _390  and  _391
REMARK  156  A    between atoms: _394  and  _396
REMARK  157  A    between atoms: _396  and  _397
REMARK  158  A    between atoms: _396  and  _399
REMARK  159  A    between atoms: _402  and  _404
REMARK  160  A    between atoms: _404  and  _405
REMARK  161  A    between atoms: _404  and  _407
REMARK  162  A    between atoms: _407  and  _408
REMARK  163  A    between atoms: _408  and  _409
REMARK  164  A    between atoms: _411  and  _413
REMARK  165  A    between atoms: _413  and  _414
REMARK  166  A    between atoms: _413  and  _416
REMARK  167  A    between atoms: _416  and  _417
REMARK  168  A    between atoms: _420  and  _422
REMARK  169  A    between atoms: _422  and  _423
REMARK  170  A    between atoms: _422  and  _425
REMARK  171  A    between atoms: _425  and  _426
REMARK  172  A    between atoms: _431  and  _432
REMARK  173  A    between atoms: _434  and  _436
REMARK  174  A    between atoms: _436  and  _437
REMARK  175  A    between atoms: _436  and  _439
REMARK  176  A    between atoms: _439  and  _440
REMARK  177  A    between atoms: _445  and  _447
REMARK  178  A    between atoms: _447  and  _448
REMARK  179  A    between atoms: _447  and  _450
REMARK  180  A    between atoms: _450  and  _451
REMARK  181  A    between atoms: _454  and  _456
REMARK  182  A    between atoms: _456  and  _457
REMARK  183  A    between atoms: _456  and  _459
REMARK  184  A    between atoms: _459  and  _460
REMARK  185  A    between atoms: _465  and  _466
REMARK  186  A    between atoms: _468  and  _470
REMARK  187  A    between atoms: _470  and  _471
REMARK  188  A    between atoms: _470  and  _473
REMARK  189  A    between atoms: _473  and  _474
REMARK  190  A    between atoms: _477  and  _479
REMARK  191  A    between atoms: _479  and  _480
REMARK  192  A    between atoms: _482  and  _484
REMARK  193  A    between atoms: _484  and  _485
REMARK  194  A    between atoms: _484  and  _487
REMARK  195  A    between atoms: _487  and  _488
REMARK  196  A    between atoms: _488  and  _489
REMARK  197  A    between atoms: _489  and  _490
REMARK  198  A    between atoms: _499  and  _501
REMARK  199  A    between atoms: _501  and  _502
REMARK  200  A    between atoms: _501  and  _504
REMARK  201  A    between atoms: _504  and  _505
REMARK  202  A    between atoms: _508  and  _510
REMARK  203  A    between atoms: _510  and  _511
REMARK  204  A    between atoms: _510  and  _513
REMARK  205  A    between atoms: _515  and  _517
REMARK  206  A    between atoms: _517  and  _518
REMARK  207  A    between atoms: _517  and  _520
REMARK  208  A    between atoms: _520  and  _521
REMARK  209  A    between atoms: _524  and  _526
REMARK  210  A    between atoms: _526  and  _527
REMARK  211  A    between atoms: _526  and  _529
REMARK  212  A    between atoms: _529  and  _530
REMARK  213  A    between atoms: _533  and  _535
REMARK  214  A    between atoms: _535  and  _536
REMARK  215  A    between atoms: _535  and  _538
REMARK  216  A    between atoms: _541  and  _543
REMARK  217  A    between atoms: _543  and  _544
REMARK  218  A    between atoms: _547  and  _549
REMARK  219  A    between atoms: _549  and  _550
REMARK  220  A    between atoms: _552  and  _554
REMARK  221  A    between atoms: _554  and  _555
REMARK  222  A    between atoms: _554  and  _557
REMARK  223  A    between atoms: _557  and  _558
REMARK  224  A    between atoms: _561  and  _563
REMARK  225  A    between atoms: _563  and  _564
REMARK  226  A    between atoms: _563  and  _566
REMARK  227  A    between atoms: _566  and  _567
REMARK  228  A    between atoms: _572  and  _573
REMARK  229  A    between atoms: _575  and  _577
REMARK  230  A    between atoms: _577  and  _578
REMARK  231  A    between atoms: _577  and  _580
REMARK  232  A    between atoms: _580  and  _581
REMARK  233  A    between atoms: _586  and  _588
REMARK  234  A    between atoms: _588  and  _589
REMARK  235  A    between atoms: _588  and  _591
REMARK  236  A    between atoms: _591  and  _592
REMARK  237  A    between atoms: _595  and  _597
REMARK  238  A    between atoms: _597  and  _598
REMARK  239  A    between atoms: _597  and  _600
REMARK  240  A    between atoms: _602  and  _604
REMARK  241  A    between atoms: _604  and  _605
REMARK  242  A    between atoms: _604  and  _607
REMARK  243  A    between atoms: _609  and  _611
REMARK  244  A    between atoms: _611  and  _612
REMARK  245  A    between atoms: _611  and  _614
REMARK  246  A    between atoms: _614  and  _615
REMARK  247  A    between atoms: _620  and  _622
REMARK  248  A    between atoms: _622  and  _623
REMARK  249  A    between atoms: _622  and  _625
REMARK  250  A    between atoms: _625  and  _626
REMARK  251  A    between atoms: _626  and  _627
REMARK  252  A    between atoms: _630  and  _632
REMARK  253  A    between atoms: _632  and  _633
REMARK  254  A    between atoms: _632  and  _635
REMARK  255  A    between atoms: _635  and  _636
REMARK  256  A    between atoms: _639  and  _641
REMARK  257  A    between atoms: _641  and  _642
REMARK  258  A    between atoms: _641  and  _644
REMARK  259  A    between atoms: _647  and  _649
REMARK  260  A    between atoms: _649  and  _650
REMARK  261  A    between atoms: _649  and  _652
REMARK  262  A    between atoms: _652  and  _653
REMARK  263  A    between atoms: _656  and  _658
REMARK  264  A    between atoms: _658  and  _659
REMARK  265  A    between atoms: _658  and  _661
REMARK  266  A    between atoms: _661  and  _662
REMARK  267  A    between atoms: _667  and  _668
REMARK  268  A    between atoms: _670  and  _672
REMARK  269  A    between atoms: _672  and  _673
REMARK  270  A    between atoms: _672  and  _675
REMARK  271  A    between atoms: _675  and  _676
REMARK  272  A    between atoms: _678  and  _680
REMARK  273  A    between atoms: _680  and  _681
REMARK  274  A    between atoms: _680  and  _683
REMARK  275  A    between atoms: _686  and  _688
REMARK  276  A    between atoms: _688  and  _689
REMARK  277  A    between atoms: _691  and  _693
REMARK  278  A    between atoms: _693  and  _694
REMARK  279  A    between atoms: _697  and  _699
REMARK  280  A    between atoms: _699  and  _700
REMARK  281  A    between atoms: _699  and  _702
REMARK  282  A    between atoms: _702  and  _703
REMARK  283  A    between atoms: _706  and  _708
REMARK  284  A    between atoms: _708  and  _709
REMARK  285  A    between atoms: _708  and  _711
REMARK  286  A    between atoms: _711  and  _712
REMARK  287  A    between atoms: _714  and  _716
REMARK  288  A    between atoms: _716  and  _717
REMARK  289  A    between atoms: _720  and  _722
REMARK  290  A    between atoms: _722  and  _723
REMARK  291  A    between atoms: _722  and  _725
REMARK  292  A    between atoms: _725  and  _726
REMARK  293  A    between atoms: _731  and  _733
REMARK  294  A    between atoms: _733  and  _734
REMARK  295  A    between atoms: _733  and  _736
REMARK  296  A    between atoms: _736  and  _737
REMARK                            x       y       z     vdW  Elec       q    Type
REMARK                         _______ _______ _______ _____ _____    ______ ____
ROOT
ATOM      1 MG   UNL     1     -22.497  34.583 -74.327  0.00  0.00    +0.000 Mg
ENDROOT
TORSDOF 0
REMARK  Name = ../refined-set-2016/2wva/2wva_pocket.pdb
REMARK  296 active torsions:
REMARK  status: ('A' for Active; 'I' for Inactive)
REMARK    1  A    between atoms: _1  and  _3
REMARK    2  A    between atoms: _3  and  _4
REMARK    3  A    between atoms: _3  and  _6
REMARK    4  A    between atoms: _6  and  _7
REMARK    5  A    between atoms: _10  and  _12
REMARK    6  A    between atoms: _12  and  _13
REMARK    7  A    between atoms: _12  and  _15
REMARK    8  A    between atoms: _15  and  _16
REMARK    9  A    between atoms: _22  and  _24
REMARK   10  A    between atoms: _24  and  _25
REMARK   11  A    between atoms: _24  and  _27
REMARK   12  A    between atoms: _27  and  _28
REMARK   13  A    between atoms: _31  and  _33
REMARK   14  A    between atoms: _33  and  _34
REMARK   15  A    between atoms: _33  and  _36
REMARK   16  A    between atoms: _36  and  _37
REMARK   17  A    between atoms: _42  and  _43
REMARK   18  A    between atoms: _45  and  _47
REMARK   19  A    between atoms: _47  and  _48
REMARK   20  A    between atoms: _47  and  _50
REMARK   21  A    between atoms: _50  and  _51
REMARK   22  A    between atoms: _56  and  _58
REMARK   23  A    between atoms: _58  and  _59
REMARK   24  A    between atoms: _58  and  _61
REMARK   25  A    between atoms: _61  and  _62
REMARK   26  A    between atoms: _62  and  _63
REMARK   27  A    between atoms: _66  and  _68
REMARK   28  A    between atoms: _68  and  _69
REMARK   29  A    between atoms: _68  and  _71
REMARK   30  A    between atoms: _71  and  _72
REMARK   31  A    between atoms: _75  and  _77
REMARK   32  A    between atoms: _77  and  _78
REMARK   33  A    between atoms: _80  and  _82
REMARK   34  A    between atoms: _82  and  _83
REMARK   35  A    between atoms: _82  and  _85
REMARK   36  A    between atoms: _85  and  _86
REMARK   37  A    between atoms: _89  and  _91
REMARK   38  A    between atoms: _91  and  _92
REMARK   39  A    between atoms: _91  and  _94
REMARK   40  A    between atoms: _94  and  _95
REMARK   41  A    between atoms: _97  and  _99
REMARK   42  A    between atoms: _99  and  _100
REMARK   43  A    between atoms: _99  and  _102
REMARK   44  A    between atoms: _102  and  _103
REMARK   45  A    between atoms: _113  and  _115
REMARK   46  A    between atoms: _115  and  _116
REMARK   47  A    between atoms: _115  and  _118
REMARK   48  A    between atoms: _118  and  _119
REMARK   49  A    between atoms: _125  and  _127
REMARK   50  A    between atoms: _127  and  _128
REMARK   51  A    between atoms: _127  and  _130
REMARK   52  A    between atoms: _130  and  _131
REMARK   53  A    between atoms: _136  and  _138
REMARK   54  A    between atoms: _138  and  _139
REMARK   55  A    between atoms: _138  and  _141
REMARK   56  A    between atoms: _141  and  _142
REMARK   57  A    between atoms: _142  and  _143
REMARK   58  A    between atoms: _146  and  _148
REMARK   59  A    between atoms: _148  and  _149
REMARK   60  A    between atoms: _148  and  _151
REMARK   61  A    between atoms: _151  and  _152
REMARK   62  A    between atoms: _162  and  _164
REMARK   63  A    between atoms: _164  and  _165
REMARK   64  A    between atoms: _167  and  _169
REMARK   65  A    between atoms: _169  and  _170
REMARK   66  A    between atoms: _169  and  _172
REMARK   67  A    between atoms: _172  and  _173
REMARK   68  A    between atoms: _178  and  _180
REMARK   69  A    between atoms: _180  and  _181
REMARK   70  A    between atoms: _180  and  _183
REMARK   71  A    between atoms: _183  and  _184
REMARK   72  A    between atoms: _187  and  _189
REMARK   73  A    between atoms: _189  and  _190
REMARK   74  A    between atoms: _192  and  _194
REMARK   75  A    between atoms: _194  and  _195
REMARK   76  A    between atoms: _194  and  _197
REMARK   77  A    between atoms: _197  and  _198
REMARK   78  A    between atoms: _208  and  _210
REMARK   79  A    between atoms: _210  and  _211
REMARK   80  A    between atoms: _210  and  _213
REMARK   81  A    between atoms: _213  and  _214
REMARK   82  A    between atoms: _216  and  _218
REMARK   83  A    between atoms: _218  and  _219
REMARK   84  A    between atoms: _218  and  _221
REMARK   85  A    between atoms: _221  and  _222
REMARK   86  A    between atoms: _222  and  _223
REMARK   87  A    between atoms: _225  and  _227
REMARK   88  A    between atoms: _227  and  _228
REMARK   89  A    between atoms: _227  and  _230
REMARK   90  A    between atoms: _233  and  _235
REMARK   91  A    between atoms: _235  and  _236
REMARK   92  A    between atoms: _238  and  _240
REMARK   93  A    between atoms: _240  and  _241
REMARK   94  A    between atoms: _240  and  _243
REMARK   95  A    between atoms: _243  and  _244
REMARK   96  A    between atoms: _247  and  _249
REMARK   97  A    between atoms: _249  and  _250
REMARK   98  A    between atoms: _252  and  _254
REMARK   99  A    between atoms: _254  and  _255
REMARK  100  A    between atoms: _254  and  _257
REMARK  101  A    between atoms: _257  and  _258
REMARK  102  A    between atoms: _260  and  _262
REMARK  103  A    between atoms: _262  and  _263
REMARK  104  A    between atoms: _262  and  _265
REMARK  105  A    between atoms: _265  and  _266
REMARK  106  A    between atoms: _272  and  _274
REMARK  107  A    between atoms: _274  and  _275
REMARK  108  A    between atoms: _274  and  _277
REMARK  109  A    between atoms: _277  and  _278
REMARK  110  A    between atoms: _278  and  _279
REMARK  111  A    between atoms: _284  and  _286
REMARK  112  A    between atoms: _286  and  _287
REMARK  113  A    between atoms: _286  and  _289
REMARK  114  A    between atoms: _289  and  _290
REMARK  115  A    between atoms: _293  and  _295
REMARK  116  A    between atoms: _295  and  _296
REMARK  117  A    between atoms: _295  and  _298
REMARK  118  A    between atoms: _298  and  _299
REMARK  119  A    between atoms: _302  and  _304
REMARK  120  A    between atoms: _304  and  _305
REMARK  121  A    between atoms: _304  and  _307
REMARK  122  A    between atoms: _307  and  _308
REMARK  123  A    between atoms: _311  and  _313
REMARK  124  A    between atoms: _313  and  _314
REMARK  125  A    between atoms: _313  and  _316
REMARK  126  A    between atoms: _316  and  _317
REMARK  127  A    between atoms: _322  and  _324
REMARK  128  A    between atoms: _324  and  _325
REMARK  129  A    between atoms: _324  and  _327
REMARK  130  A    between atoms: _327  and  _328
REMARK  131  A    between atoms: _333  and  _335
REMARK  132  A    between atoms: _335  and  _336
REMARK  133  A    between atoms: _335  and  _338
REMARK  134  A    between atoms: _338  and  _339
REMARK  135  A    between atoms: _344  and  _345
REMARK  136  A    between atoms: _347  and  _349
REMARK  137  A    between atoms: _349  and  _350
REMARK  138  A    between atoms: _352  and  _354
REMARK  139  A    between atoms: _354  and  _355
REMARK  140  A    between atoms: _354  and  _357
REMARK  141  A    between atoms: _357  and  _358
REMARK  142  A    between atoms: _363  and  _364
REMARK  143  A    between atoms: _366  and  _368
REMARK  144  A    between atoms: _368  and  _369
REMARK  145  A    between atoms: _368  and  _371
REMARK  146  A    between atoms: _371  and  _372
REMARK  147  A    between atoms: _375  and  _377
REMARK  148  A    between atoms: _377  and  _378
REMARK  149  A    between atoms: _377  and  _380
REMARK  150  A    between atoms: _380  and  _381
REMARK  151  A    between atoms: _384  and  _386
REMARK  152  A    between atoms: _386  and  _387
REMARK  153  A    between atoms: _386  and  _389
REMARK  154  A    between atoms: _389  and  _390
REMARK  155  A    between atoms: _390  and  _391
REMARK  156  A    between atoms: _394  and  _396
REMARK  157  A    between atoms: _396  and  _397
REMARK  158  A    between atoms: _396  and  _399
REMARK  159  A    between atoms: _402  and  _404
REMARK  160  A    between atoms: _404  and  _405
REMARK  161  A    between atoms: _404  and  _407
REMARK  162  A    between atoms: _407  and  _408
REMARK  163  A    between atoms: _408  and  _409
REMARK  164  A    between atoms: _411  and  _413
REMARK  165  A    between atoms: _413  and  _414
REMARK  166  A    between atoms: _413  and  _416
REMARK  167  A    between atoms: _416  and  _417
REMARK  168  A    between atoms: _420  and  _422
REMARK  169  A    between atoms: _422  and  _423
REMARK  170  A    between atoms: _422  and  _425
REMARK  171  A    between atoms: _425  and  _426
REMARK  172  A    between atoms: _431  and  _432
REMARK  173  A    between atoms: _434  and  _436
REMARK  174  A    between atoms: _436  and  _437
REMARK  175  A    between atoms: _436  and  _439
REMARK  176  A    between atoms: _439  and  _440
REMARK  177  A    between atoms: _445  and  _447
REMARK  178  A    between atoms: _447  and  _448
REMARK  179  A    between atoms: _447  and  _450
REMARK  180  A    between atoms: _450  and  _451
REMARK  181  A    between atoms: _454  and  _456
REMARK  182  A    between atoms: _456  and  _457
REMARK  183  A    between atoms: _456  and  _459
REMARK  184  A    between atoms: _459  and  _460
REMARK  185  A    between atoms: _465  and  _466
REMARK  186  A    between atoms: _468  and  _470
REMARK  187  A    between atoms: _470  and  _471
REMARK  188  A    between atoms: _470  and  _473
REMARK  189  A    between atoms: _473  and  _474
REMARK  190  A    between atoms: _477  and  _479
REMARK  191  A    between atoms: _479  and  _480
REMARK  192  A    between atoms: _482  and  _484
REMARK  193  A    between atoms: _484  and  _485
REMARK  194  A    between atoms: _484  and  _487
REMARK  195  A    between atoms: _487  and  _488
REMARK  196  A    between atoms: _488  and  _489
REMARK  197  A    between atoms: _489  and  _490
REMARK  198  A    between atoms: _499  and  _501
REMARK  199  A    between atoms: _501  and  _502
REMARK  200  A    between atoms: _501  and  _504
REMARK  201  A    between atoms: _504  and  _505
REMARK  202  A    between atoms: _508  and  _510
REMARK  203  A    between atoms: _510  and  _511
REMARK  204  A    between atoms: _510  and  _513
REMARK  205  A    between atoms: _515  and  _517
REMARK  206  A    between atoms: _517  and  _518
REMARK  207  A    between atoms: _517  and  _520
REMARK  208  A    between atoms: _520  and  _521
REMARK  209  A    between atoms: _524  and  _526
REMARK  210  A    between atoms: _526  and  _527
REMARK  211  A    between atoms: _526  and  _529
REMARK  212  A    between atoms: _529  and  _530
REMARK  213  A    between atoms: _533  and  _535
REMARK  214  A    between atoms: _535  and  _536
REMARK  215  A    between atoms: _535  and  _538
REMARK  216  A    between atoms: _541  and  _543
REMARK  217  A    between atoms: _543  and  _544
REMARK  218  A    between atoms: _547  and  _549
REMARK  219  A    between atoms: _549  and  _550
REMARK  220  A    between atoms: _552  and  _554
REMARK  221  A    between atoms: _554  and  _555
REMARK  222  A    between atoms: _554  and  _557
REMARK  223  A    between atoms: _557  and  _558
REMARK  224  A    between atoms: _561  and  _563
REMARK  225  A    between atoms: _563  and  _564
REMARK  226  A    between atoms: _563  and  _566
REMARK  227  A    between atoms: _566  and  _567
REMARK  228  A    between atoms: _572  and  _573
REMARK  229  A    between atoms: _575  and  _577
REMARK  230  A    between atoms: _577  and  _578
REMARK  231  A    between atoms: _577  and  _580
REMARK  232  A    between atoms: _580  and  _581
REMARK  233  A    between atoms: _586  and  _588
REMARK  234  A    between atoms: _588  and  _589
REMARK  235  A    between atoms: _588  and  _591
REMARK  236  A    between atoms: _591  and  _592
REMARK  237  A    between atoms: _595  and  _597
REMARK  238  A    between atoms: _597  and  _598
REMARK  239  A    between atoms: _597  and  _600
REMARK  240  A    between atoms: _602  and  _604
REMARK  241  A    between atoms: _604  and  _605
REMARK  242  A    between atoms: _604  and  _607
REMARK  243  A    between atoms: _609  and  _611
REMARK  244  A    between atoms: _611  and  _612
REMARK  245  A    between atoms: _611  and  _614
REMARK  246  A    between atoms: _614  and  _615
REMARK  247  A    between atoms: _620  and  _622
REMARK  248  A    between atoms: _622  and  _623
REMARK  249  A    between atoms: _622  and  _625
REMARK  250  A    between atoms: _625  and  _626
REMARK  251  A    between atoms: _626  and  _627
REMARK  252  A    between atoms: _630  and  _632
REMARK  253  A    between atoms: _632  and  _633
REMARK  254  A    between atoms: _632  and  _635
REMARK  255  A    between atoms: _635  and  _636
REMARK  256  A    between atoms: _639  and  _641
REMARK  257  A    between atoms: _641  and  _642
REMARK  258  A    between atoms: _641  and  _644
REMARK  259  A    between atoms: _647  and  _649
REMARK  260  A    between atoms: _649  and  _650
REMARK  261  A    between atoms: _649  and  _652
REMARK  262  A    between atoms: _652  and  _653
REMARK  263  A    between atoms: _656  and  _658
REMARK  264  A    between atoms: _658  and  _659
REMARK  265  A    between atoms: _658  and  _661
REMARK  266  A    between atoms: _661  and  _662
REMARK  267  A    between atoms: _667  and  _668
REMARK  268  A    between atoms: _670  and  _672
REMARK  269  A    between atoms: _672  and  _673
REMARK  270  A    between atoms: _672  and  _675
REMARK  271  A    between atoms: _675  and  _676
REMARK  272  A    between atoms: _678  and  _680
REMARK  273  A    between atoms: _680  and  _681
REMARK  274  A    between atoms: _680  and  _683
REMARK  275  A    between atoms: _686  and  _688
REMARK  276  A    between atoms: _688  and  _689
REMARK  277  A    between atoms: _691  and  _693
REMARK  278  A    between atoms: _693  and  _694
REMARK  279  A    between atoms: _697  and  _699
REMARK  280  A    between atoms: _699  and  _700
REMARK  281  A    between atoms: _699  and  _702
REMARK  282  A    between atoms: _702  and  _703
REMARK  283  A    between atoms: _706  and  _708
REMARK  284  A    between atoms: _708  and  _709
REMARK  285  A    between atoms: _708  and  _711
REMARK  286  A    between atoms: _711  and  _712
REMARK  287  A    between atoms: _714  and  _716
REMARK  288  A    between atoms: _716  and  _717
REMARK  289  A    between atoms: _720  and  _722
REMARK  290  A    between atoms: _722  and  _723
REMARK  291  A    between atoms: _722  and  _725
REMARK  292  A    between atoms: _725  and  _726
REMARK  293  A    between atoms: _731  and  _733
REMARK  294  A    between atoms: _733  and  _734
REMARK  295  A    between atoms: _733  and  _736
REMARK  296  A    between atoms: _736  and  _737
REMARK                            x       y       z     vdW  Elec       q    Type
REMARK                         _______ _______ _______ _____ _____    ______ ____
ROOT
ATOM      1  O   HOH     1     -17.492  26.793 -83.052  0.00  0.00    +0.000 OA
ENDROOT
TORSDOF 0
REMARK  Name = ../refined-set-2016/2wva/2wva_pocket.pdb
REMARK  296 active torsions:
REMARK  status: ('A' for Active; 'I' for Inactive)
REMARK    1  A    between atoms: _1  and  _3
REMARK    2  A    between atoms: _3  and  _4
REMARK    3  A    between atoms: _3  and  _6
REMARK    4  A    between atoms: _6  and  _7
REMARK    5  A    between atoms: _10  and  _12
REMARK    6  A    between atoms: _12  and  _13
REMARK    7  A    between atoms: _12  and  _15
REMARK    8  A    between atoms: _15  and  _16
REMARK    9  A    between atoms: _22  and  _24
REMARK   10  A    between atoms: _24  and  _25
REMARK   11  A    between atoms: _24  and  _27
REMARK   12  A    between atoms: _27  and  _28
REMARK   13  A    between atoms: _31  and  _33
REMARK   14  A    between atoms: _33  and  _34
REMARK   15  A    between atoms: _33  and  _36
REMARK   16  A    between atoms: _36  and  _37
REMARK   17  A    between atoms: _42  and  _43
REMARK   18  A    between atoms: _45  and  _47
REMARK   19  A    between atoms: _47  and  _48
REMARK   20  A    between atoms: _47  and  _50
REMARK   21  A    between atoms: _50  and  _51
REMARK   22  A    between atoms: _56  and  _58
REMARK   23  A    between atoms: _58  and  _59
REMARK   24  A    between atoms: _58  and  _61
REMARK   25  A    between atoms: _61  and  _62
REMARK   26  A    between atoms: _62  and  _63
REMARK   27  A    between atoms: _66  and  _68
REMARK   28  A    between atoms: _68  and  _69
REMARK   29  A    between atoms: _68  and  _71
REMARK   30  A    between atoms: _71  and  _72
REMARK   31  A    between atoms: _75  and  _77
REMARK   32  A    between atoms: _77  and  _78
REMARK   33  A    between atoms: _80  and  _82
REMARK   34  A    between atoms: _82  and  _83
REMARK   35  A    between atoms: _82  and  _85
REMARK   36  A    between atoms: _85  and  _86
REMARK   37  A    between atoms: _89  and  _91
REMARK   38  A    between atoms: _91  and  _92
REMARK   39  A    between atoms: _91  and  _94
REMARK   40  A    between atoms: _94  and  _95
REMARK   41  A    between atoms: _97  and  _99
REMARK   42  A    between atoms: _99  and  _100
REMARK   43  A    between atoms: _99  and  _102
REMARK   44  A    between atoms: _102  and  _103
REMARK   45  A    between atoms: _113  and  _115
REMARK   46  A    between atoms: _115  and  _116
REMARK   47  A    between atoms: _115  and  _118
REMARK   48  A    between atoms: _118  and  _119
REMARK   49  A    between atoms: _125  and  _127
REMARK   50  A    between atoms: _127  and  _128
REMARK   51  A    between atoms: _127  and  _130
REMARK   52  A    between atoms: _130  and  _131
REMARK   53  A    between atoms: _136  and  _138
REMARK   54  A    between atoms: _138  and  _139
REMARK   55  A    between atoms: _138  and  _141
REMARK   56  A    between atoms: _141  and  _142
REMARK   57  A    between atoms: _142  and  _143
REMARK   58  A    between atoms: _146  and  _148
REMARK   59  A    between atoms: _148  and  _149
REMARK   60  A    between atoms: _148  and  _151
REMARK   61  A    between atoms: _151  and  _152
REMARK   62  A    between atoms: _162  and  _164
REMARK   63  A    between atoms: _164  and  _165
REMARK   64  A    between atoms: _167  and  _169
REMARK   65  A    between atoms: _169  and  _170
REMARK   66  A    between atoms: _169  and  _172
REMARK   67  A    between atoms: _172  and  _173
REMARK   68  A    between atoms: _178  and  _180
REMARK   69  A    between atoms: _180  and  _181
REMARK   70  A    between atoms: _180  and  _183
REMARK   71  A    between atoms: _183  and  _184
REMARK   72  A    between atoms: _187  and  _189
REMARK   73  A    between atoms: _189  and  _190
REMARK   74  A    between atoms: _192  and  _194
REMARK   75  A    between atoms: _194  and  _195
REMARK   76  A    between atoms: _194  and  _197
REMARK   77  A    between atoms: _197  and  _198
REMARK   78  A    between atoms: _208  and  _210
REMARK   79  A    between atoms: _210  and  _211
REMARK   80  A    between atoms: _210  and  _213
REMARK   81  A    between atoms: _213  and  _214
REMARK   82  A    between atoms: _216  and  _218
REMARK   83  A    between atoms: _218  and  _219
REMARK   84  A    between atoms: _218  and  _221
REMARK   85  A    between atoms: _221  and  _222
REMARK   86  A    between atoms: _222  and  _223
REMARK   87  A    between atoms: _225  and  _227
REMARK   88  A    between atoms: _227  and  _228
REMARK   89  A    between atoms: _227  and  _230
REMARK   90  A    between atoms: _233  and  _235
REMARK   91  A    between atoms: _235  and  _236
REMARK   92  A    between atoms: _238  and  _240
REMARK   93  A    between atoms: _240  and  _241
REMARK   94  A    between atoms: _240  and  _243
REMARK   95  A    between atoms: _243  and  _244
REMARK   96  A    between atoms: _247  and  _249
REMARK   97  A    between atoms: _249  and  _250
REMARK   98  A    between atoms: _252  and  _254
REMARK   99  A    between atoms: _254  and  _255
REMARK  100  A    between atoms: _254  and  _257
REMARK  101  A    between atoms: _257  and  _258
REMARK  102  A    between atoms: _260  and  _262
REMARK  103  A    between atoms: _262  and  _263
REMARK  104  A    between atoms: _262  and  _265
REMARK  105  A    between atoms: _265  and  _266
REMARK  106  A    between atoms: _272  and  _274
REMARK  107  A    between atoms: _274  and  _275
REMARK  108  A    between atoms: _274  and  _277
REMARK  109  A    between atoms: _277  and  _278
REMARK  110  A    between atoms: _278  and  _279
REMARK  111  A    between atoms: _284  and  _286
REMARK  112  A    between atoms: _286  and  _287
REMARK  113  A    between atoms: _286  and  _289
REMARK  114  A    between atoms: _289  and  _290
REMARK  115  A    between atoms: _293  and  _295
REMARK  116  A    between atoms: _295  and  _296
REMARK  117  A    between atoms: _295  and  _298
REMARK  118  A    between atoms: _298  and  _299
REMARK  119  A    between atoms: _302  and  _304
REMARK  120  A    between atoms: _304  and  _305
REMARK  121  A    between atoms: _304  and  _307
REMARK  122  A    between atoms: _307  and  _308
REMARK  123  A    between atoms: _311  and  _313
REMARK  124  A    between atoms: _313  and  _314
REMARK  125  A    between atoms: _313  and  _316
REMARK  126  A    between atoms: _316  and  _317
REMARK  127  A    between atoms: _322  and  _324
REMARK  128  A    between atoms: _324  and  _325
REMARK  129  A    between atoms: _324  and  _327
REMARK  130  A    between atoms: _327  and  _328
REMARK  131  A    between atoms: _333  and  _335
REMARK  132  A    between atoms: _335  and  _336
REMARK  133  A    between atoms: _335  and  _338
REMARK  134  A    between atoms: _338  and  _339
REMARK  135  A    between atoms: _344  and  _345
REMARK  136  A    between atoms: _347  and  _349
REMARK  137  A    between atoms: _349  and  _350
REMARK  138  A    between atoms: _352  and  _354
REMARK  139  A    between atoms: _354  and  _355
REMARK  140  A    between atoms: _354  and  _357
REMARK  141  A    between atoms: _357  and  _358
REMARK  142  A    between atoms: _363  and  _364
REMARK  143  A    between atoms: _366  and  _368
REMARK  144  A    between atoms: _368  and  _369
REMARK  145  A    between atoms: _368  and  _371
REMARK  146  A    between atoms: _371  and  _372
REMARK  147  A    between atoms: _375  and  _377
REMARK  148  A    between atoms: _377  and  _378
REMARK  149  A    between atoms: _377  and  _380
REMARK  150  A    between atoms: _380  and  _381
REMARK  151  A    between atoms: _384  and  _386
REMARK  152  A    between atoms: _386  and  _387
REMARK  153  A    between atoms: _386  and  _389
REMARK  154  A    between atoms: _389  and  _390
REMARK  155  A    between atoms: _390  and  _391
REMARK  156  A    between atoms: _394  and  _396
REMARK  157  A    between atoms: _396  and  _397
REMARK  158  A    between atoms: _396  and  _399
REMARK  159  A    between atoms: _402  and  _404
REMARK  160  A    between atoms: _404  and  _405
REMARK  161  A    between atoms: _404  and  _407
REMARK  162  A    between atoms: _407  and  _408
REMARK  163  A    between atoms: _408  and  _409
REMARK  164  A    between atoms: _411  and  _413
REMARK  165  A    between atoms: _413  and  _414
REMARK  166  A    between atoms: _413  and  _416
REMARK  167  A    between atoms: _416  and  _417
REMARK  168  A    between atoms: _420  and  _422
REMARK  169  A    between atoms: _422  and  _423
REMARK  170  A    between atoms: _422  and  _425
REMARK  171  A    between atoms: _425  and  _426
REMARK  172  A    between atoms: _431  and  _432
REMARK  173  A    between atoms: _434  and  _436
REMARK  174  A    between atoms: _436  and  _437
REMARK  175  A    between atoms: _436  and  _439
REMARK  176  A    between atoms: _439  and  _440
REMARK  177  A    between atoms: _445  and  _447
REMARK  178  A    between atoms: _447  and  _448
REMARK  179  A    between atoms: _447  and  _450
REMARK  180  A    between atoms: _450  and  _451
REMARK  181  A    between atoms: _454  and  _456
REMARK  182  A    between atoms: _456  and  _457
REMARK  183  A    between atoms: _456  and  _459
REMARK  184  A    between atoms: _459  and  _460
REMARK  185  A    between atoms: _465  and  _466
REMARK  186  A    between atoms: _468  and  _470
REMARK  187  A    between atoms: _470  and  _471
REMARK  188  A    between atoms: _470  and  _473
REMARK  189  A    between atoms: _473  and  _474
REMARK  190  A    between atoms: _477  and  _479
REMARK  191  A    between atoms: _479  and  _480
REMARK  192  A    between atoms: _482  and  _484
REMARK  193  A    between atoms: _484  and  _485
REMARK  194  A    between atoms: _484  and  _487
REMARK  195  A    between atoms: _487  and  _488
REMARK  196  A    between atoms: _488  and  _489
REMARK  197  A    between atoms: _489  and  _490
REMARK  198  A    between atoms: _499  and  _501
REMARK  199  A    between atoms: _501  and  _502
REMARK  200  A    between atoms: _501  and  _504
REMARK  201  A    between atoms: _504  and  _505
REMARK  202  A    between atoms: _508  and  _510
REMARK  203  A    between atoms: _510  and  _511
REMARK  204  A    between atoms: _510  and  _513
REMARK  205  A    between atoms: _515  and  _517
REMARK  206  A    between atoms: _517  and  _518
REMARK  207  A    between atoms: _517  and  _520
REMARK  208  A    between atoms: _520  and  _521
REMARK  209  A    between atoms: _524  and  _526
REMARK  210  A    between atoms: _526  and  _527
REMARK  211  A    between atoms: _526  and  _529
REMARK  212  A    between atoms: _529  and  _530
REMARK  213  A    between atoms: _533  and  _535
REMARK  214  A    between atoms: _535  and  _536
REMARK  215  A    between atoms: _535  and  _538
REMARK  216  A    between atoms: _541  and  _543
REMARK  217  A    between atoms: _543  and  _544
REMARK  218  A    between atoms: _547  and  _549
REMARK  219  A    between atoms: _549  and  _550
REMARK  220  A    between atoms: _552  and  _554
REMARK  221  A    between atoms: _554  and  _555
REMARK  222  A    between atoms: _554  and  _557
REMARK  223  A    between atoms: _557  and  _558
REMARK  224  A    between atoms: _561  and  _563
REMARK  225  A    between atoms: _563  and  _564
REMARK  226  A    between atoms: _563  and  _566
REMARK  227  A    between atoms: _566  and  _567
REMARK  228  A    between atoms: _572  and  _573
REMARK  229  A    between atoms: _575  and  _577
REMARK  230  A    between atoms: _577  and  _578
REMARK  231  A    between atoms: _577  and  _580
REMARK  232  A    between atoms: _580  and  _581
REMARK  233  A    between atoms: _586  and  _588
REMARK  234  A    between atoms: _588  and  _589
REMARK  235  A    between atoms: _588  and  _591
REMARK  236  A    between atoms: _591  and  _592
REMARK  237  A    between atoms: _595  and  _597
REMARK  238  A    between atoms: _597  and  _598
REMARK  239  A    between atoms: _597  and  _600
REMARK  240  A    between atoms: _602  and  _604
REMARK  241  A    between atoms: _604  and  _605
REMARK  242  A    between atoms: _604  and  _607
REMARK  243  A    between atoms: _609  and  _611
REMARK  244  A    between atoms: _611  and  _612
REMARK  245  A    between atoms: _611  and  _614
REMARK  246  A    between atoms: _614  and  _615
REMARK  247  A    between atoms: _620  and  _622
REMARK  248  A    between atoms: _622  and  _623
REMARK  249  A    between atoms: _622  and  _625
REMARK  250  A    between atoms: _625  and  _626
REMARK  251  A    between atoms: _626  and  _627
REMARK  252  A    between atoms: _630  and  _632
REMARK  253  A    between atoms: _632  and  _633
REMARK  254  A    between atoms: _632  and  _635
REMARK  255  A    between atoms: _635  and  _636
REMARK  256  A    between atoms: _639  and  _641
REMARK  257  A    between atoms: _641  and  _642
REMARK  258  A    between atoms: _641  and  _644
REMARK  259  A    between atoms: _647  and  _649
REMARK  260  A    between atoms: _649  and  _650
REMARK  261  A    between atoms: _649  and  _652
REMARK  262  A    between atoms: _652  and  _653
REMARK  263  A    between atoms: _656  and  _658
REMARK  264  A    between atoms: _658  and  _659
REMARK  265  A    between atoms: _658  and  _661
REMARK  266  A    between atoms: _661  and  _662
REMARK  267  A    between atoms: _667  and  _668
REMARK  268  A    between atoms: _670  and  _672
REMARK  269  A    between atoms: _672  and  _673
REMARK  270  A    between atoms: _672  and  _675
REMARK  271  A    between atoms: _675  and  _676
REMARK  272  A    between atoms: _678  and  _680
REMARK  273  A    between atoms: _680  and  _681
REMARK  274  A    between atoms: _680  and  _683
REMARK  275  A    between atoms: _686  and  _688
REMARK  276  A    between atoms: _688  and  _689
REMARK  277  A    between atoms: _691  and  _693
REMARK  278  A    between atoms: _693  and  _694
REMARK  279  A    between atoms: _697  and  _699
REMARK  280  A    between atoms: _699  and  _700
REMARK  281  A    between atoms: _699  and  _702
REMARK  282  A    between atoms: _702  and  _703
REMARK  283  A    between atoms: _706  and  _708
REMARK  284  A    between atoms: _708  and  _709
REMARK  285  A    between atoms: _708  and  _711
REMARK  286  A    between atoms: _711  and  _712
REMARK  287  A    between atoms: _714  and  _716
REMARK  288  A    between atoms: _716  and  _717
REMARK  289  A    between atoms: _720  and  _722
REMARK  290  A    between atoms: _722  and  _723
REMARK  291  A    between atoms: _722  and  _725
REMARK  292  A    between atoms: _725  and  _726
REMARK  293  A    between atoms: _731  and  _733
REMARK  294  A    between atoms: _733  and  _734
REMARK  295  A    between atoms: _733  and  _736
REMARK  296  A    between atoms: _736  and  _737
REMARK                            x       y       z     vdW  Elec       q    Type
REMARK                         _______ _______ _______ _____ _____    ______ ____
ROOT
ATOM      1  O   HOH     1     -22.480  33.703 -79.015  0.00  0.00    +0.000 OA
ENDROOT
TORSDOF 0
REMARK  Name = ../refined-set-2016/2wva/2wva_pocket.pdb
REMARK  296 active torsions:
REMARK  status: ('A' for Active; 'I' for Inactive)
REMARK    1  A    between atoms: _1  and  _3
REMARK    2  A    between atoms: _3  and  _4
REMARK    3  A    between atoms: _3  and  _6
REMARK    4  A    between atoms: _6  and  _7
REMARK    5  A    between atoms: _10  and  _12
REMARK    6  A    between atoms: _12  and  _13
REMARK    7  A    between atoms: _12  and  _15
REMARK    8  A    between atoms: _15  and  _16
REMARK    9  A    between atoms: _22  and  _24
REMARK   10  A    between atoms: _24  and  _25
REMARK   11  A    between atoms: _24  and  _27
REMARK   12  A    between atoms: _27  and  _28
REMARK   13  A    between atoms: _31  and  _33
REMARK   14  A    between atoms: _33  and  _34
REMARK   15  A    between atoms: _33  and  _36
REMARK   16  A    between atoms: _36  and  _37
REMARK   17  A    between atoms: _42  and  _43
REMARK   18  A    between atoms: _45  and  _47
REMARK   19  A    between atoms: _47  and  _48
REMARK   20  A    between atoms: _47  and  _50
REMARK   21  A    between atoms: _50  and  _51
REMARK   22  A    between atoms: _56  and  _58
REMARK   23  A    between atoms: _58  and  _59
REMARK   24  A    between atoms: _58  and  _61
REMARK   25  A    between atoms: _61  and  _62
REMARK   26  A    between atoms: _62  and  _63
REMARK   27  A    between atoms: _66  and  _68
REMARK   28  A    between atoms: _68  and  _69
REMARK   29  A    between atoms: _68  and  _71
REMARK   30  A    between atoms: _71  and  _72
REMARK   31  A    between atoms: _75  and  _77
REMARK   32  A    between atoms: _77  and  _78
REMARK   33  A    between atoms: _80  and  _82
REMARK   34  A    between atoms: _82  and  _83
REMARK   35  A    between atoms: _82  and  _85
REMARK   36  A    between atoms: _85  and  _86
REMARK   37  A    between atoms: _89  and  _91
REMARK   38  A    between atoms: _91  and  _92
REMARK   39  A    between atoms: _91  and  _94
REMARK   40  A    between atoms: _94  and  _95
REMARK   41  A    between atoms: _97  and  _99
REMARK   42  A    between atoms: _99  and  _100
REMARK   43  A    between atoms: _99  and  _102
REMARK   44  A    between atoms: _102  and  _103
REMARK   45  A    between atoms: _113  and  _115
REMARK   46  A    between atoms: _115  and  _116
REMARK   47  A    between atoms: _115  and  _118
REMARK   48  A    between atoms: _118  and  _119
REMARK   49  A    between atoms: _125  and  _127
REMARK   50  A    between atoms: _127  and  _128
REMARK   51  A    between atoms: _127  and  _130
REMARK   52  A    between atoms: _130  and  _131
REMARK   53  A    between atoms: _136  and  _138
REMARK   54  A    between atoms: _138  and  _139
REMARK   55  A    between atoms: _138  and  _141
REMARK   56  A    between atoms: _141  and  _142
REMARK   57  A    between atoms: _142  and  _143
REMARK   58  A    between atoms: _146  and  _148
REMARK   59  A    between atoms: _148  and  _149
REMARK   60  A    between atoms: _148  and  _151
REMARK   61  A    between atoms: _151  and  _152
REMARK   62  A    between atoms: _162  and  _164
REMARK   63  A    between atoms: _164  and  _165
REMARK   64  A    between atoms: _167  and  _169
REMARK   65  A    between atoms: _169  and  _170
REMARK   66  A    between atoms: _169  and  _172
REMARK   67  A    between atoms: _172  and  _173
REMARK   68  A    between atoms: _178  and  _180
REMARK   69  A    between atoms: _180  and  _181
REMARK   70  A    between atoms: _180  and  _183
REMARK   71  A    between atoms: _183  and  _184
REMARK   72  A    between atoms: _187  and  _189
REMARK   73  A    between atoms: _189  and  _190
REMARK   74  A    between atoms: _192  and  _194
REMARK   75  A    between atoms: _194  and  _195
REMARK   76  A    between atoms: _194  and  _197
REMARK   77  A    between atoms: _197  and  _198
REMARK   78  A    between atoms: _208  and  _210
REMARK   79  A    between atoms: _210  and  _211
REMARK   80  A    between atoms: _210  and  _213
REMARK   81  A    between atoms: _213  and  _214
REMARK   82  A    between atoms: _216  and  _218
REMARK   83  A    between atoms: _218  and  _219
REMARK   84  A    between atoms: _218  and  _221
REMARK   85  A    between atoms: _221  and  _222
REMARK   86  A    between atoms: _222  and  _223
REMARK   87  A    between atoms: _225  and  _227
REMARK   88  A    between atoms: _227  and  _228
REMARK   89  A    between atoms: _227  and  _230
REMARK   90  A    between atoms: _233  and  _235
REMARK   91  A    between atoms: _235  and  _236
REMARK   92  A    between atoms: _238  and  _240
REMARK   93  A    between atoms: _240  and  _241
REMARK   94  A    between atoms: _240  and  _243
REMARK   95  A    between atoms: _243  and  _244
REMARK   96  A    between atoms: _247  and  _249
REMARK   97  A    between atoms: _249  and  _250
REMARK   98  A    between atoms: _252  and  _254
REMARK   99  A    between atoms: _254  and  _255
REMARK  100  A    between atoms: _254  and  _257
REMARK  101  A    between atoms: _257  and  _258
REMARK  102  A    between atoms: _260  and  _262
REMARK  103  A    between atoms: _262  and  _263
REMARK  104  A    between atoms: _262  and  _265
REMARK  105  A    between atoms: _265  and  _266
REMARK  106  A    between atoms: _272  and  _274
REMARK  107  A    between atoms: _274  and  _275
REMARK  108  A    between atoms: _274  and  _277
REMARK  109  A    between atoms: _277  and  _278
REMARK  110  A    between atoms: _278  and  _279
REMARK  111  A    between atoms: _284  and  _286
REMARK  112  A    between atoms: _286  and  _287
REMARK  113  A    between atoms: _286  and  _289
REMARK  114  A    between atoms: _289  and  _290
REMARK  115  A    between atoms: _293  and  _295
REMARK  116  A    between atoms: _295  and  _296
REMARK  117  A    between atoms: _295  and  _298
REMARK  118  A    between atoms: _298  and  _299
REMARK  119  A    between atoms: _302  and  _304
REMARK  120  A    between atoms: _304  and  _305
REMARK  121  A    between atoms: _304  and  _307
REMARK  122  A    between atoms: _307  and  _308
REMARK  123  A    between atoms: _311  and  _313
REMARK  124  A    between atoms: _313  and  _314
REMARK  125  A    between atoms: _313  and  _316
REMARK  126  A    between atoms: _316  and  _317
REMARK  127  A    between atoms: _322  and  _324
REMARK  128  A    between atoms: _324  and  _325
REMARK  129  A    between atoms: _324  and  _327
REMARK  130  A    between atoms: _327  and  _328
REMARK  131  A    between atoms: _333  and  _335
REMARK  132  A    between atoms: _335  and  _336
REMARK  133  A    between atoms: _335  and  _338
REMARK  134  A    between atoms: _338  and  _339
REMARK  135  A    between atoms: _344  and  _345
REMARK  136  A    between atoms: _347  and  _349
REMARK  137  A    between atoms: _349  and  _350
REMARK  138  A    between atoms: _352  and  _354
REMARK  139  A    between atoms: _354  and  _355
REMARK  140  A    between atoms: _354  and  _357
REMARK  141  A    between atoms: _357  and  _358
REMARK  142  A    between atoms: _363  and  _364
REMARK  143  A    between atoms: _366  and  _368
REMARK  144  A    between atoms: _368  and  _369
REMARK  145  A    between atoms: _368  and  _371
REMARK  146  A    between atoms: _371  and  _372
REMARK  147  A    between atoms: _375  and  _377
REMARK  148  A    between atoms: _377  and  _378
REMARK  149  A    between atoms: _377  and  _380
REMARK  150  A    between atoms: _380  and  _381
REMARK  151  A    between atoms: _384  and  _386
REMARK  152  A    between atoms: _386  and  _387
REMARK  153  A    between atoms: _386  and  _389
REMARK  154  A    between atoms: _389  and  _390
REMARK  155  A    between atoms: _390  and  _391
REMARK  156  A    between atoms: _394  and  _396
REMARK  157  A    between atoms: _396  and  _397
REMARK  158  A    between atoms: _396  and  _399
REMARK  159  A    between atoms: _402  and  _404
REMARK  160  A    between atoms: _404  and  _405
REMARK  161  A    between atoms: _404  and  _407
REMARK  162  A    between atoms: _407  and  _408
REMARK  163  A    between atoms: _408  and  _409
REMARK  164  A    between atoms: _411  and  _413
REMARK  165  A    between atoms: _413  and  _414
REMARK  166  A    between atoms: _413  and  _416
REMARK  167  A    between atoms: _416  and  _417
REMARK  168  A    between atoms: _420  and  _422
REMARK  169  A    between atoms: _422  and  _423
REMARK  170  A    between atoms: _422  and  _425
REMARK  171  A    between atoms: _425  and  _426
REMARK  172  A    between atoms: _431  and  _432
REMARK  173  A    between atoms: _434  and  _436
REMARK  174  A    between atoms: _436  and  _437
REMARK  175  A    between atoms: _436  and  _439
REMARK  176  A    between atoms: _439  and  _440
REMARK  177  A    between atoms: _445  and  _447
REMARK  178  A    between atoms: _447  and  _448
REMARK  179  A    between atoms: _447  and  _450
REMARK  180  A    between atoms: _450  and  _451
REMARK  181  A    between atoms: _454  and  _456
REMARK  182  A    between atoms: _456  and  _457
REMARK  183  A    between atoms: _456  and  _459
REMARK  184  A    between atoms: _459  and  _460
REMARK  185  A    between atoms: _465  and  _466
REMARK  186  A    between atoms: _468  and  _470
REMARK  187  A    between atoms: _470  and  _471
REMARK  188  A    between atoms: _470  and  _473
REMARK  189  A    between atoms: _473  and  _474
REMARK  190  A    between atoms: _477  and  _479
REMARK  191  A    between atoms: _479  and  _480
REMARK  192  A    between atoms: _482  and  _484
REMARK  193  A    between atoms: _484  and  _485
REMARK  194  A    between atoms: _484  and  _487
REMARK  195  A    between atoms: _487  and  _488
REMARK  196  A    between atoms: _488  and  _489
REMARK  197  A    between atoms: _489  and  _490
REMARK  198  A    between atoms: _499  and  _501
REMARK  199  A    between atoms: _501  and  _502
REMARK  200  A    between atoms: _501  and  _504
REMARK  201  A    between atoms: _504  and  _505
REMARK  202  A    between atoms: _508  and  _510
REMARK  203  A    between atoms: _510  and  _511
REMARK  204  A    between atoms: _510  and  _513
REMARK  205  A    between atoms: _515  and  _517
REMARK  206  A    between atoms: _517  and  _518
REMARK  207  A    between atoms: _517  and  _520
REMARK  208  A    between atoms: _520  and  _521
REMARK  209  A    between atoms: _524  and  _526
REMARK  210  A    between atoms: _526  and  _527
REMARK  211  A    between atoms: _526  and  _529
REMARK  212  A    between atoms: _529  and  _530
REMARK  213  A    between atoms: _533  and  _535
REMARK  214  A    between atoms: _535  and  _536
REMARK  215  A    between atoms: _535  and  _538
REMARK  216  A    between atoms: _541  and  _543
REMARK  217  A    between atoms: _543  and  _544
REMARK  218  A    between atoms: _547  and  _549
REMARK  219  A    between atoms: _549  and  _550
REMARK  220  A    between atoms: _552  and  _554
REMARK  221  A    between atoms: _554  and  _555
REMARK  222  A    between atoms: _554  and  _557
REMARK  223  A    between atoms: _557  and  _558
REMARK  224  A    between atoms: _561  and  _563
REMARK  225  A    between atoms: _563  and  _564
REMARK  226  A    between atoms: _563  and  _566
REMARK  227  A    between atoms: _566  and  _567
REMARK  228  A    between atoms: _572  and  _573
REMARK  229  A    between atoms: _575  and  _577
REMARK  230  A    between atoms: _577  and  _578
REMARK  231  A    between atoms: _577  and  _580
REMARK  232  A    between atoms: _580  and  _581
REMARK  233  A    between atoms: _586  and  _588
REMARK  234  A    between atoms: _588  and  _589
REMARK  235  A    between atoms: _588  and  _591
REMARK  236  A    between atoms: _591  and  _592
REMARK  237  A    between atoms: _595  and  _597
REMARK  238  A    between atoms: _597  and  _598
REMARK  239  A    between atoms: _597  and  _600
REMARK  240  A    between atoms: _602  and  _604
REMARK  241  A    between atoms: _604  and  _605
REMARK  242  A    between atoms: _604  and  _607
REMARK  243  A    between atoms: _609  and  _611
REMARK  244  A    between atoms: _611  and  _612
REMARK  245  A    between atoms: _611  and  _614
REMARK  246  A    between atoms: _614  and  _615
REMARK  247  A    between atoms: _620  and  _622
REMARK  248  A    between atoms: _622  and  _623
REMARK  249  A    between atoms: _622  and  _625
REMARK  250  A    between atoms: _625  and  _626
REMARK  251  A    between atoms: _626  and  _627
REMARK  252  A    between atoms: _630  and  _632
REMARK  253  A    between atoms: _632  and  _633
REMARK  254  A    between atoms: _632  and  _635
REMARK  255  A    between atoms: _635  and  _636
REMARK  256  A    between atoms: _639  and  _641
REMARK  257  A    between atoms: _641  and  _642
REMARK  258  A    between atoms: _641  and  _644
REMARK  259  A    between atoms: _647  and  _649
REMARK  260  A    between atoms: _649  and  _650
REMARK  261  A    between atoms: _649  and  _652
REMARK  262  A    between atoms: _652  and  _653
REMARK  263  A    between atoms: _656  and  _658
REMARK  264  A    between atoms: _658  and  _659
REMARK  265  A    between atoms: _658  and  _661
REMARK  266  A    between atoms: _661  and  _662
REMARK  267  A    between atoms: _667  and  _668
REMARK  268  A    between atoms: _670  and  _672
REMARK  269  A    between atoms: _672  and  _673
REMARK  270  A    between atoms: _672  and  _675
REMARK  271  A    between atoms: _675  and  _676
REMARK  272  A    between atoms: _678  and  _680
REMARK  273  A    between atoms: _680  and  _681
REMARK  274  A    between atoms: _680  and  _683
REMARK  275  A    between atoms: _686  and  _688
REMARK  276  A    between atoms: _688  and  _689
REMARK  277  A    between atoms: _691  and  _693
REMARK  278  A    between atoms: _693  and  _694
REMARK  279  A    between atoms: _697  and  _699
REMARK  280  A    between atoms: _699  and  _700
REMARK  281  A    between atoms: _699  and  _702
REMARK  282  A    between atoms: _702  and  _703
REMARK  283  A    between atoms: _706  and  _708
REMARK  284  A    between atoms: _708  and  _709
REMARK  285  A    between atoms: _708  and  _711
REMARK  286  A    between atoms: _711  and  _712
REMARK  287  A    between atoms: _714  and  _716
REMARK  288  A    between atoms: _716  and  _717
REMARK  289  A    between atoms: _720  and  _722
REMARK  290  A    between atoms: _722  and  _723
REMARK  291  A    between atoms: _722  and  _725
REMARK  292  A    between atoms: _725  and  _726
REMARK  293  A    between atoms: _731  and  _733
REMARK  294  A    between atoms: _733  and  _734
REMARK  295  A    between atoms: _733  and  _736
REMARK  296  A    between atoms: _736  and  _737
REMARK                            x       y       z     vdW  Elec       q    Type
REMARK                         _______ _______ _______ _____ _____    ______ ____
ROOT
ATOM      1  O   HOH     1     -20.382  32.178 -78.416  0.00  0.00    +0.000 OA
ENDROOT
TORSDOF 0
REMARK  Name = ../refined-set-2016/2wva/2wva_pocket.pdb
REMARK  296 active torsions:
REMARK  status: ('A' for Active; 'I' for Inactive)
REMARK    1  A    between atoms: _1  and  _3
REMARK    2  A    between atoms: _3  and  _4
REMARK    3  A    between atoms: _3  and  _6
REMARK    4  A    between atoms: _6  and  _7
REMARK    5  A    between atoms: _10  and  _12
REMARK    6  A    between atoms: _12  and  _13
REMARK    7  A    between atoms: _12  and  _15
REMARK    8  A    between atoms: _15  and  _16
REMARK    9  A    between atoms: _22  and  _24
REMARK   10  A    between atoms: _24  and  _25
REMARK   11  A    between atoms: _24  and  _27
REMARK   12  A    between atoms: _27  and  _28
REMARK   13  A    between atoms: _31  and  _33
REMARK   14  A    between atoms: _33  and  _34
REMARK   15  A    between atoms: _33  and  _36
REMARK   16  A    between atoms: _36  and  _37
REMARK   17  A    between atoms: _42  and  _43
REMARK   18  A    between atoms: _45  and  _47
REMARK   19  A    between atoms: _47  and  _48
REMARK   20  A    between atoms: _47  and  _50
REMARK   21  A    between atoms: _50  and  _51
REMARK   22  A    between atoms: _56  and  _58
REMARK   23  A    between atoms: _58  and  _59
REMARK   24  A    between atoms: _58  and  _61
REMARK   25  A    between atoms: _61  and  _62
REMARK   26  A    between atoms: _62  and  _63
REMARK   27  A    between atoms: _66  and  _68
REMARK   28  A    between atoms: _68  and  _69
REMARK   29  A    between atoms: _68  and  _71
REMARK   30  A    between atoms: _71  and  _72
REMARK   31  A    between atoms: _75  and  _77
REMARK   32  A    between atoms: _77  and  _78
REMARK   33  A    between atoms: _80  and  _82
REMARK   34  A    between atoms: _82  and  _83
REMARK   35  A    between atoms: _82  and  _85
REMARK   36  A    between atoms: _85  and  _86
REMARK   37  A    between atoms: _89  and  _91
REMARK   38  A    between atoms: _91  and  _92
REMARK   39  A    between atoms: _91  and  _94
REMARK   40  A    between atoms: _94  and  _95
REMARK   41  A    between atoms: _97  and  _99
REMARK   42  A    between atoms: _99  and  _100
REMARK   43  A    between atoms: _99  and  _102
REMARK   44  A    between atoms: _102  and  _103
REMARK   45  A    between atoms: _113  and  _115
REMARK   46  A    between atoms: _115  and  _116
REMARK   47  A    between atoms: _115  and  _118
REMARK   48  A    between atoms: _118  and  _119
REMARK   49  A    between atoms: _125  and  _127
REMARK   50  A    between atoms: _127  and  _128
REMARK   51  A    between atoms: _127  and  _130
REMARK   52  A    between atoms: _130  and  _131
REMARK   53  A    between atoms: _136  and  _138
REMARK   54  A    between atoms: _138  and  _139
REMARK   55  A    between atoms: _138  and  _141
REMARK   56  A    between atoms: _141  and  _142
REMARK   57  A    between atoms: _142  and  _143
REMARK   58  A    between atoms: _146  and  _148
REMARK   59  A    between atoms: _148  and  _149
REMARK   60  A    between atoms: _148  and  _151
REMARK   61  A    between atoms: _151  and  _152
REMARK   62  A    between atoms: _162  and  _164
REMARK   63  A    between atoms: _164  and  _165
REMARK   64  A    between atoms: _167  and  _169
REMARK   65  A    between atoms: _169  and  _170
REMARK   66  A    between atoms: _169  and  _172
REMARK   67  A    between atoms: _172  and  _173
REMARK   68  A    between atoms: _178  and  _180
REMARK   69  A    between atoms: _180  and  _181
REMARK   70  A    between atoms: _180  and  _183
REMARK   71  A    between atoms: _183  and  _184
REMARK   72  A    between atoms: _187  and  _189
REMARK   73  A    between atoms: _189  and  _190
REMARK   74  A    between atoms: _192  and  _194
REMARK   75  A    between atoms: _194  and  _195
REMARK   76  A    between atoms: _194  and  _197
REMARK   77  A    between atoms: _197  and  _198
REMARK   78  A    between atoms: _208  and  _210
REMARK   79  A    between atoms: _210  and  _211
REMARK   80  A    between atoms: _210  and  _213
REMARK   81  A    between atoms: _213  and  _214
REMARK   82  A    between atoms: _216  and  _218
REMARK   83  A    between atoms: _218  and  _219
REMARK   84  A    between atoms: _218  and  _221
REMARK   85  A    between atoms: _221  and  _222
REMARK   86  A    between atoms: _222  and  _223
REMARK   87  A    between atoms: _225  and  _227
REMARK   88  A    between atoms: _227  and  _228
REMARK   89  A    between atoms: _227  and  _230
REMARK   90  A    between atoms: _233  and  _235
REMARK   91  A    between atoms: _235  and  _236
REMARK   92  A    between atoms: _238  and  _240
REMARK   93  A    between atoms: _240  and  _241
REMARK   94  A    between atoms: _240  and  _243
REMARK   95  A    between atoms: _243  and  _244
REMARK   96  A    between atoms: _247  and  _249
REMARK   97  A    between atoms: _249  and  _250
REMARK   98  A    between atoms: _252  and  _254
REMARK   99  A    between atoms: _254  and  _255
REMARK  100  A    between atoms: _254  and  _257
REMARK  101  A    between atoms: _257  and  _258
REMARK  102  A    between atoms: _260  and  _262
REMARK  103  A    between atoms: _262  and  _263
REMARK  104  A    between atoms: _262  and  _265
REMARK  105  A    between atoms: _265  and  _266
REMARK  106  A    between atoms: _272  and  _274
REMARK  107  A    between atoms: _274  and  _275
REMARK  108  A    between atoms: _274  and  _277
REMARK  109  A    between atoms: _277  and  _278
REMARK  110  A    between atoms: _278  and  _279
REMARK  111  A    between atoms: _284  and  _286
REMARK  112  A    between atoms: _286  and  _287
REMARK  113  A    between atoms: _286  and  _289
REMARK  114  A    between atoms: _289  and  _290
REMARK  115  A    between atoms: _293  and  _295
REMARK  116  A    between atoms: _295  and  _296
REMARK  117  A    between atoms: _295  and  _298
REMARK  118  A    between atoms: _298  and  _299
REMARK  119  A    between atoms: _302  and  _304
REMARK  120  A    between atoms: _304  and  _305
REMARK  121  A    between atoms: _304  and  _307
REMARK  122  A    between atoms: _307  and  _308
REMARK  123  A    between atoms: _311  and  _313
REMARK  124  A    between atoms: _313  and  _314
REMARK  125  A    between atoms: _313  and  _316
REMARK  126  A    between atoms: _316  and  _317
REMARK  127  A    between atoms: _322  and  _324
REMARK  128  A    between atoms: _324  and  _325
REMARK  129  A    between atoms: _324  and  _327
REMARK  130  A    between atoms: _327  and  _328
REMARK  131  A    between atoms: _333  and  _335
REMARK  132  A    between atoms: _335  and  _336
REMARK  133  A    between atoms: _335  and  _338
REMARK  134  A    between atoms: _338  and  _339
REMARK  135  A    between atoms: _344  and  _345
REMARK  136  A    between atoms: _347  and  _349
REMARK  137  A    between atoms: _349  and  _350
REMARK  138  A    between atoms: _352  and  _354
REMARK  139  A    between atoms: _354  and  _355
REMARK  140  A    between atoms: _354  and  _357
REMARK  141  A    between atoms: _357  and  _358
REMARK  142  A    between atoms: _363  and  _364
REMARK  143  A    between atoms: _366  and  _368
REMARK  144  A    between atoms: _368  and  _369
REMARK  145  A    between atoms: _368  and  _371
REMARK  146  A    between atoms: _371  and  _372
REMARK  147  A    between atoms: _375  and  _377
REMARK  148  A    between atoms: _377  and  _378
REMARK  149  A    between atoms: _377  and  _380
REMARK  150  A    between atoms: _380  and  _381
REMARK  151  A    between atoms: _384  and  _386
REMARK  152  A    between atoms: _386  and  _387
REMARK  153  A    between atoms: _386  and  _389
REMARK  154  A    between atoms: _389  and  _390
REMARK  155  A    between atoms: _390  and  _391
REMARK  156  A    between atoms: _394  and  _396
REMARK  157  A    between atoms: _396  and  _397
REMARK  158  A    between atoms: _396  and  _399
REMARK  159  A    between atoms: _402  and  _404
REMARK  160  A    between atoms: _404  and  _405
REMARK  161  A    between atoms: _404  and  _407
REMARK  162  A    between atoms: _407  and  _408
REMARK  163  A    between atoms: _408  and  _409
REMARK  164  A    between atoms: _411  and  _413
REMARK  165  A    between atoms: _413  and  _414
REMARK  166  A    between atoms: _413  and  _416
REMARK  167  A    between atoms: _416  and  _417
REMARK  168  A    between atoms: _420  and  _422
REMARK  169  A    between atoms: _422  and  _423
REMARK  170  A    between atoms: _422  and  _425
REMARK  171  A    between atoms: _425  and  _426
REMARK  172  A    between atoms: _431  and  _432
REMARK  173  A    between atoms: _434  and  _436
REMARK  174  A    between atoms: _436  and  _437
REMARK  175  A    between atoms: _436  and  _439
REMARK  176  A    between atoms: _439  and  _440
REMARK  177  A    between atoms: _445  and  _447
REMARK  178  A    between atoms: _447  and  _448
REMARK  179  A    between atoms: _447  and  _450
REMARK  180  A    between atoms: _450  and  _451
REMARK  181  A    between atoms: _454  and  _456
REMARK  182  A    between atoms: _456  and  _457
REMARK  183  A    between atoms: _456  and  _459
REMARK  184  A    between atoms: _459  and  _460
REMARK  185  A    between atoms: _465  and  _466
REMARK  186  A    between atoms: _468  and  _470
REMARK  187  A    between atoms: _470  and  _471
REMARK  188  A    between atoms: _470  and  _473
REMARK  189  A    between atoms: _473  and  _474
REMARK  190  A    between atoms: _477  and  _479
REMARK  191  A    between atoms: _479  and  _480
REMARK  192  A    between atoms: _482  and  _484
REMARK  193  A    between atoms: _484  and  _485
REMARK  194  A    between atoms: _484  and  _487
REMARK  195  A    between atoms: _487  and  _488
REMARK  196  A    between atoms: _488  and  _489
REMARK  197  A    between atoms: _489  and  _490
REMARK  198  A    between atoms: _499  and  _501
REMARK  199  A    between atoms: _501  and  _502
REMARK  200  A    between atoms: _501  and  _504
REMARK  201  A    between atoms: _504  and  _505
REMARK  202  A    between atoms: _508  and  _510
REMARK  203  A    between atoms: _510  and  _511
REMARK  204  A    between atoms: _510  and  _513
REMARK  205  A    between atoms: _515  and  _517
REMARK  206  A    between atoms: _517  and  _518
REMARK  207  A    between atoms: _517  and  _520
REMARK  208  A    between atoms: _520  and  _521
REMARK  209  A    between atoms: _524  and  _526
REMARK  210  A    between atoms: _526  and  _527
REMARK  211  A    between atoms: _526  and  _529
REMARK  212  A    between atoms: _529  and  _530
REMARK  213  A    between atoms: _533  and  _535
REMARK  214  A    between atoms: _535  and  _536
REMARK  215  A    between atoms: _535  and  _538
REMARK  216  A    between atoms: _541  and  _543
REMARK  217  A    between atoms: _543  and  _544
REMARK  218  A    between atoms: _547  and  _549
REMARK  219  A    between atoms: _549  and  _550
REMARK  220  A    between atoms: _552  and  _554
REMARK  221  A    between atoms: _554  and  _555
REMARK  222  A    between atoms: _554  and  _557
REMARK  223  A    between atoms: _557  and  _558
REMARK  224  A    between atoms: _561  and  _563
REMARK  225  A    between atoms: _563  and  _564
REMARK  226  A    between atoms: _563  and  _566
REMARK  227  A    between atoms: _566  and  _567
REMARK  228  A    between atoms: _572  and  _573
REMARK  229  A    between atoms: _575  and  _577
REMARK  230  A    between atoms: _577  and  _578
REMARK  231  A    between atoms: _577  and  _580
REMARK  232  A    between atoms: _580  and  _581
REMARK  233  A    between atoms: _586  and  _588
REMARK  234  A    between atoms: _588  and  _589
REMARK  235  A    between atoms: _588  and  _591
REMARK  236  A    between atoms: _591  and  _592
REMARK  237  A    between atoms: _595  and  _597
REMARK  238  A    between atoms: _597  and  _598
REMARK  239  A    between atoms: _597  and  _600
REMARK  240  A    between atoms: _602  and  _604
REMARK  241  A    between atoms: _604  and  _605
REMARK  242  A    between atoms: _604  and  _607
REMARK  243  A    between atoms: _609  and  _611
REMARK  244  A    between atoms: _611  and  _612
REMARK  245  A    between atoms: _611  and  _614
REMARK  246  A    between atoms: _614  and  _615
REMARK  247  A    between atoms: _620  and  _622
REMARK  248  A    between atoms: _622  and  _623
REMARK  249  A    between atoms: _622  and  _625
REMARK  250  A    between atoms: _625  and  _626
REMARK  251  A    between atoms: _626  and  _627
REMARK  252  A    between atoms: _630  and  _632
REMARK  253  A    between atoms: _632  and  _633
REMARK  254  A    between atoms: _632  and  _635
REMARK  255  A    between atoms: _635  and  _636
REMARK  256  A    between atoms: _639  and  _641
REMARK  257  A    between atoms: _641  and  _642
REMARK  258  A    between atoms: _641  and  _644
REMARK  259  A    between atoms: _647  and  _649
REMARK  260  A    between atoms: _649  and  _650
REMARK  261  A    between atoms: _649  and  _652
REMARK  262  A    between atoms: _652  and  _653
REMARK  263  A    between atoms: _656  and  _658
REMARK  264  A    between atoms: _658  and  _659
REMARK  265  A    between atoms: _658  and  _661
REMARK  266  A    between atoms: _661  and  _662
REMARK  267  A    between atoms: _667  and  _668
REMARK  268  A    between atoms: _670  and  _672
REMARK  269  A    between atoms: _672  and  _673
REMARK  270  A    between atoms: _672  and  _675
REMARK  271  A    between atoms: _675  and  _676
REMARK  272  A    between atoms: _678  and  _680
REMARK  273  A    between atoms: _680  and  _681
REMARK  274  A    between atoms: _680  and  _683
REMARK  275  A    between atoms: _686  and  _688
REMARK  276  A    between atoms: _688  and  _689
REMARK  277  A    between atoms: _691  and  _693
REMARK  278  A    between atoms: _693  and  _694
REMARK  279  A    between atoms: _697  and  _699
REMARK  280  A    between atoms: _699  and  _700
REMARK  281  A    between atoms: _699  and  _702
REMARK  282  A    between atoms: _702  and  _703
REMARK  283  A    between atoms: _706  and  _708
REMARK  284  A    between atoms: _708  and  _709
REMARK  285  A    between atoms: _708  and  _711
REMARK  286  A    between atoms: _711  and  _712
REMARK  287  A    between atoms: _714  and  _716
REMARK  288  A    between atoms: _716  and  _717
REMARK  289  A    between atoms: _720  and  _722
REMARK  290  A    between atoms: _722  and  _723
REMARK  291  A    between atoms: _722  and  _725
REMARK  292  A    between atoms: _725  and  _726
REMARK  293  A    between atoms: _731  and  _733
REMARK  294  A    between atoms: _733  and  _734
REMARK  295  A    between atoms: _733  and  _736
REMARK  296  A    between atoms: _736  and  _737
REMARK                            x       y       z     vdW  Elec       q    Type
REMARK                         _______ _______ _______ _____ _____    ______ ____
ROOT
ATOM      1  O   HOH     1     -17.877  25.253 -67.417  0.00  0.00    +0.000 OA
ENDROOT
TORSDOF 0
REMARK  Name = ../refined-set-2016/2wva/2wva_pocket.pdb
REMARK  296 active torsions:
REMARK  status: ('A' for Active; 'I' for Inactive)
REMARK    1  A    between atoms: _1  and  _3
REMARK    2  A    between atoms: _3  and  _4
REMARK    3  A    between atoms: _3  and  _6
REMARK    4  A    between atoms: _6  and  _7
REMARK    5  A    between atoms: _10  and  _12
REMARK    6  A    between atoms: _12  and  _13
REMARK    7  A    between atoms: _12  and  _15
REMARK    8  A    between atoms: _15  and  _16
REMARK    9  A    between atoms: _22  and  _24
REMARK   10  A    between atoms: _24  and  _25
REMARK   11  A    between atoms: _24  and  _27
REMARK   12  A    between atoms: _27  and  _28
REMARK   13  A    between atoms: _31  and  _33
REMARK   14  A    between atoms: _33  and  _34
REMARK   15  A    between atoms: _33  and  _36
REMARK   16  A    between atoms: _36  and  _37
REMARK   17  A    between atoms: _42  and  _43
REMARK   18  A    between atoms: _45  and  _47
REMARK   19  A    between atoms: _47  and  _48
REMARK   20  A    between atoms: _47  and  _50
REMARK   21  A    between atoms: _50  and  _51
REMARK   22  A    between atoms: _56  and  _58
REMARK   23  A    between atoms: _58  and  _59
REMARK   24  A    between atoms: _58  and  _61
REMARK   25  A    between atoms: _61  and  _62
REMARK   26  A    between atoms: _62  and  _63
REMARK   27  A    between atoms: _66  and  _68
REMARK   28  A    between atoms: _68  and  _69
REMARK   29  A    between atoms: _68  and  _71
REMARK   30  A    between atoms: _71  and  _72
REMARK   31  A    between atoms: _75  and  _77
REMARK   32  A    between atoms: _77  and  _78
REMARK   33  A    between atoms: _80  and  _82
REMARK   34  A    between atoms: _82  and  _83
REMARK   35  A    between atoms: _82  and  _85
REMARK   36  A    between atoms: _85  and  _86
REMARK   37  A    between atoms: _89  and  _91
REMARK   38  A    between atoms: _91  and  _92
REMARK   39  A    between atoms: _91  and  _94
REMARK   40  A    between atoms: _94  and  _95
REMARK   41  A    between atoms: _97  and  _99
REMARK   42  A    between atoms: _99  and  _100
REMARK   43  A    between atoms: _99  and  _102
REMARK   44  A    between atoms: _102  and  _103
REMARK   45  A    between atoms: _113  and  _115
REMARK   46  A    between atoms: _115  and  _116
REMARK   47  A    between atoms: _115  and  _118
REMARK   48  A    between atoms: _118  and  _119
REMARK   49  A    between atoms: _125  and  _127
REMARK   50  A    between atoms: _127  and  _128
REMARK   51  A    between atoms: _127  and  _130
REMARK   52  A    between atoms: _130  and  _131
REMARK   53  A    between atoms: _136  and  _138
REMARK   54  A    between atoms: _138  and  _139
REMARK   55  A    between atoms: _138  and  _141
REMARK   56  A    between atoms: _141  and  _142
REMARK   57  A    between atoms: _142  and  _143
REMARK   58  A    between atoms: _146  and  _148
REMARK   59  A    between atoms: _148  and  _149
REMARK   60  A    between atoms: _148  and  _151
REMARK   61  A    between atoms: _151  and  _152
REMARK   62  A    between atoms: _162  and  _164
REMARK   63  A    between atoms: _164  and  _165
REMARK   64  A    between atoms: _167  and  _169
REMARK   65  A    between atoms: _169  and  _170
REMARK   66  A    between atoms: _169  and  _172
REMARK   67  A    between atoms: _172  and  _173
REMARK   68  A    between atoms: _178  and  _180
REMARK   69  A    between atoms: _180  and  _181
REMARK   70  A    between atoms: _180  and  _183
REMARK   71  A    between atoms: _183  and  _184
REMARK   72  A    between atoms: _187  and  _189
REMARK   73  A    between atoms: _189  and  _190
REMARK   74  A    between atoms: _192  and  _194
REMARK   75  A    between atoms: _194  and  _195
REMARK   76  A    between atoms: _194  and  _197
REMARK   77  A    between atoms: _197  and  _198
REMARK   78  A    between atoms: _208  and  _210
REMARK   79  A    between atoms: _210  and  _211
REMARK   80  A    between atoms: _210  and  _213
REMARK   81  A    between atoms: _213  and  _214
REMARK   82  A    between atoms: _216  and  _218
REMARK   83  A    between atoms: _218  and  _219
REMARK   84  A    between atoms: _218  and  _221
REMARK   85  A    between atoms: _221  and  _222
REMARK   86  A    between atoms: _222  and  _223
REMARK   87  A    between atoms: _225  and  _227
REMARK   88  A    between atoms: _227  and  _228
REMARK   89  A    between atoms: _227  and  _230
REMARK   90  A    between atoms: _233  and  _235
REMARK   91  A    between atoms: _235  and  _236
REMARK   92  A    between atoms: _238  and  _240
REMARK   93  A    between atoms: _240  and  _241
REMARK   94  A    between atoms: _240  and  _243
REMARK   95  A    between atoms: _243  and  _244
REMARK   96  A    between atoms: _247  and  _249
REMARK   97  A    between atoms: _249  and  _250
REMARK   98  A    between atoms: _252  and  _254
REMARK   99  A    between atoms: _254  and  _255
REMARK  100  A    between atoms: _254  and  _257
REMARK  101  A    between atoms: _257  and  _258
REMARK  102  A    between atoms: _260  and  _262
REMARK  103  A    between atoms: _262  and  _263
REMARK  104  A    between atoms: _262  and  _265
REMARK  105  A    between atoms: _265  and  _266
REMARK  106  A    between atoms: _272  and  _274
REMARK  107  A    between atoms: _274  and  _275
REMARK  108  A    between atoms: _274  and  _277
REMARK  109  A    between atoms: _277  and  _278
REMARK  110  A    between atoms: _278  and  _279
REMARK  111  A    between atoms: _284  and  _286
REMARK  112  A    between atoms: _286  and  _287
REMARK  113  A    between atoms: _286  and  _289
REMARK  114  A    between atoms: _289  and  _290
REMARK  115  A    between atoms: _293  and  _295
REMARK  116  A    between atoms: _295  and  _296
REMARK  117  A    between atoms: _295  and  _298
REMARK  118  A    between atoms: _298  and  _299
REMARK  119  A    between atoms: _302  and  _304
REMARK  120  A    between atoms: _304  and  _305
REMARK  121  A    between atoms: _304  and  _307
REMARK  122  A    between atoms: _307  and  _308
REMARK  123  A    between atoms: _311  and  _313
REMARK  124  A    between atoms: _313  and  _314
REMARK  125  A    between atoms: _313  and  _316
REMARK  126  A    between atoms: _316  and  _317
REMARK  127  A    between atoms: _322  and  _324
REMARK  128  A    between atoms: _324  and  _325
REMARK  129  A    between atoms: _324  and  _327
REMARK  130  A    between atoms: _327  and  _328
REMARK  131  A    between atoms: _333  and  _335
REMARK  132  A    between atoms: _335  and  _336
REMARK  133  A    between atoms: _335  and  _338
REMARK  134  A    between atoms: _338  and  _339
REMARK  135  A    between atoms: _344  and  _345
REMARK  136  A    between atoms: _347  and  _349
REMARK  137  A    between atoms: _349  and  _350
REMARK  138  A    between atoms: _352  and  _354
REMARK  139  A    between atoms: _354  and  _355
REMARK  140  A    between atoms: _354  and  _357
REMARK  141  A    between atoms: _357  and  _358
REMARK  142  A    between atoms: _363  and  _364
REMARK  143  A    between atoms: _366  and  _368
REMARK  144  A    between atoms: _368  and  _369
REMARK  145  A    between atoms: _368  and  _371
REMARK  146  A    between atoms: _371  and  _372
REMARK  147  A    between atoms: _375  and  _377
REMARK  148  A    between atoms: _377  and  _378
REMARK  149  A    between atoms: _377  and  _380
REMARK  150  A    between atoms: _380  and  _381
REMARK  151  A    between atoms: _384  and  _386
REMARK  152  A    between atoms: _386  and  _387
REMARK  153  A    between atoms: _386  and  _389
REMARK  154  A    between atoms: _389  and  _390
REMARK  155  A    between atoms: _390  and  _391
REMARK  156  A    between atoms: _394  and  _396
REMARK  157  A    between atoms: _396  and  _397
REMARK  158  A    between atoms: _396  and  _399
REMARK  159  A    between atoms: _402  and  _404
REMARK  160  A    between atoms: _404  and  _405
REMARK  161  A    between atoms: _404  and  _407
REMARK  162  A    between atoms: _407  and  _408
REMARK  163  A    between atoms: _408  and  _409
REMARK  164  A    between atoms: _411  and  _413
REMARK  165  A    between atoms: _413  and  _414
REMARK  166  A    between atoms: _413  and  _416
REMARK  167  A    between atoms: _416  and  _417
REMARK  168  A    between atoms: _420  and  _422
REMARK  169  A    between atoms: _422  and  _423
REMARK  170  A    between atoms: _422  and  _425
REMARK  171  A    between atoms: _425  and  _426
REMARK  172  A    between atoms: _431  and  _432
REMARK  173  A    between atoms: _434  and  _436
REMARK  174  A    between atoms: _436  and  _437
REMARK  175  A    between atoms: _436  and  _439
REMARK  176  A    between atoms: _439  and  _440
REMARK  177  A    between atoms: _445  and  _447
REMARK  178  A    between atoms: _447  and  _448
REMARK  179  A    between atoms: _447  and  _450
REMARK  180  A    between atoms: _450  and  _451
REMARK  181  A    between atoms: _454  and  _456
REMARK  182  A    between atoms: _456  and  _457
REMARK  183  A    between atoms: _456  and  _459
REMARK  184  A    between atoms: _459  and  _460
REMARK  185  A    between atoms: _465  and  _466
REMARK  186  A    between atoms: _468  and  _470
REMARK  187  A    between atoms: _470  and  _471
REMARK  188  A    between atoms: _470  and  _473
REMARK  189  A    between atoms: _473  and  _474
REMARK  190  A    between atoms: _477  and  _479
REMARK  191  A    between atoms: _479  and  _480
REMARK  192  A    between atoms: _482  and  _484
REMARK  193  A    between atoms: _484  and  _485
REMARK  194  A    between atoms: _484  and  _487
REMARK  195  A    between atoms: _487  and  _488
REMARK  196  A    between atoms: _488  and  _489
REMARK  197  A    between atoms: _489  and  _490
REMARK  198  A    between atoms: _499  and  _501
REMARK  199  A    between atoms: _501  and  _502
REMARK  200  A    between atoms: _501  and  _504
REMARK  201  A    between atoms: _504  and  _505
REMARK  202  A    between atoms: _508  and  _510
REMARK  203  A    between atoms: _510  and  _511
REMARK  204  A    between atoms: _510  and  _513
REMARK  205  A    between atoms: _515  and  _517
REMARK  206  A    between atoms: _517  and  _518
REMARK  207  A    between atoms: _517  and  _520
REMARK  208  A    between atoms: _520  and  _521
REMARK  209  A    between atoms: _524  and  _526
REMARK  210  A    between atoms: _526  and  _527
REMARK  211  A    between atoms: _526  and  _529
REMARK  212  A    between atoms: _529  and  _530
REMARK  213  A    between atoms: _533  and  _535
REMARK  214  A    between atoms: _535  and  _536
REMARK  215  A    between atoms: _535  and  _538
REMARK  216  A    between atoms: _541  and  _543
REMARK  217  A    between atoms: _543  and  _544
REMARK  218  A    between atoms: _547  and  _549
REMARK  219  A    between atoms: _549  and  _550
REMARK  220  A    between atoms: _552  and  _554
REMARK  221  A    between atoms: _554  and  _555
REMARK  222  A    between atoms: _554  and  _557
REMARK  223  A    between atoms: _557  and  _558
REMARK  224  A    between atoms: _561  and  _563
REMARK  225  A    between atoms: _563  and  _564
REMARK  226  A    between atoms: _563  and  _566
REMARK  227  A    between atoms: _566  and  _567
REMARK  228  A    between atoms: _572  and  _573
REMARK  229  A    between atoms: _575  and  _577
REMARK  230  A    between atoms: _577  and  _578
REMARK  231  A    between atoms: _577  and  _580
REMARK  232  A    between atoms: _580  and  _581
REMARK  233  A    between atoms: _586  and  _588
REMARK  234  A    between atoms: _588  and  _589
REMARK  235  A    between atoms: _588  and  _591
REMARK  236  A    between atoms: _591  and  _592
REMARK  237  A    between atoms: _595  and  _597
REMARK  238  A    between atoms: _597  and  _598
REMARK  239  A    between atoms: _597  and  _600
REMARK  240  A    between atoms: _602  and  _604
REMARK  241  A    between atoms: _604  and  _605
REMARK  242  A    between atoms: _604  and  _607
REMARK  243  A    between atoms: _609  and  _611
REMARK  244  A    between atoms: _611  and  _612
REMARK  245  A    between atoms: _611  and  _614
REMARK  246  A    between atoms: _614  and  _615
REMARK  247  A    between atoms: _620  and  _622
REMARK  248  A    between atoms: _622  and  _623
REMARK  249  A    between atoms: _622  and  _625
REMARK  250  A    between atoms: _625  and  _626
REMARK  251  A    between atoms: _626  and  _627
REMARK  252  A    between atoms: _630  and  _632
REMARK  253  A    between atoms: _632  and  _633
REMARK  254  A    between atoms: _632  and  _635
REMARK  255  A    between atoms: _635  and  _636
REMARK  256  A    between atoms: _639  and  _641
REMARK  257  A    between atoms: _641  and  _642
REMARK  258  A    between atoms: _641  and  _644
REMARK  259  A    between atoms: _647  and  _649
REMARK  260  A    between atoms: _649  and  _650
REMARK  261  A    between atoms: _649  and  _652
REMARK  262  A    between atoms: _652  and  _653
REMARK  263  A    between atoms: _656  and  _658
REMARK  264  A    between atoms: _658  and  _659
REMARK  265  A    between atoms: _658  and  _661
REMARK  266  A    between atoms: _661  and  _662
REMARK  267  A    between atoms: _667  and  _668
REMARK  268  A    between atoms: _670  and  _672
REMARK  269  A    between atoms: _672  and  _673
REMARK  270  A    between atoms: _672  and  _675
REMARK  271  A    between atoms: _675  and  _676
REMARK  272  A    between atoms: _678  and  _680
REMARK  273  A    between atoms: _680  and  _681
REMARK  274  A    between atoms: _680  and  _683
REMARK  275  A    between atoms: _686  and  _688
REMARK  276  A    between atoms: _688  and  _689
REMARK  277  A    between atoms: _691  and  _693
REMARK  278  A    between atoms: _693  and  _694
REMARK  279  A    between atoms: _697  and  _699
REMARK  280  A    between atoms: _699  and  _700
REMARK  281  A    between atoms: _699  and  _702
REMARK  282  A    between atoms: _702  and  _703
REMARK  283  A    between atoms: _706  and  _708
REMARK  284  A    between atoms: _708  and  _709
REMARK  285  A    between atoms: _708  and  _711
REMARK  286  A    between atoms: _711  and  _712
REMARK  287  A    between atoms: _714  and  _716
REMARK  288  A    between atoms: _716  and  _717
REMARK  289  A    between atoms: _720  and  _722
REMARK  290  A    between atoms: _722  and  _723
REMARK  291  A    between atoms: _722  and  _725
REMARK  292  A    between atoms: _725  and  _726
REMARK  293  A    between atoms: _731  and  _733
REMARK  294  A    between atoms: _733  and  _734
REMARK  295  A    between atoms: _733  and  _736
REMARK  296  A    between atoms: _736  and  _737
REMARK                            x       y       z     vdW  Elec       q    Type
REMARK                         _______ _______ _______ _____ _____    ______ ____
ROOT
ATOM      1  O   HOH     1     -26.425  33.283 -70.214  0.00  0.00    +0.000 OA
ENDROOT
TORSDOF 0
REMARK  Name = ../refined-set-2016/2wva/2wva_pocket.pdb
REMARK  296 active torsions:
REMARK  status: ('A' for Active; 'I' for Inactive)
REMARK    1  A    between atoms: _1  and  _3
REMARK    2  A    between atoms: _3  and  _4
REMARK    3  A    between atoms: _3  and  _6
REMARK    4  A    between atoms: _6  and  _7
REMARK    5  A    between atoms: _10  and  _12
REMARK    6  A    between atoms: _12  and  _13
REMARK    7  A    between atoms: _12  and  _15
REMARK    8  A    between atoms: _15  and  _16
REMARK    9  A    between atoms: _22  and  _24
REMARK   10  A    between atoms: _24  and  _25
REMARK   11  A    between atoms: _24  and  _27
REMARK   12  A    between atoms: _27  and  _28
REMARK   13  A    between atoms: _31  and  _33
REMARK   14  A    between atoms: _33  and  _34
REMARK   15  A    between atoms: _33  and  _36
REMARK   16  A    between atoms: _36  and  _37
REMARK   17  A    between atoms: _42  and  _43
REMARK   18  A    between atoms: _45  and  _47
REMARK   19  A    between atoms: _47  and  _48
REMARK   20  A    between atoms: _47  and  _50
REMARK   21  A    between atoms: _50  and  _51
REMARK   22  A    between atoms: _56  and  _58
REMARK   23  A    between atoms: _58  and  _59
REMARK   24  A    between atoms: _58  and  _61
REMARK   25  A    between atoms: _61  and  _62
REMARK   26  A    between atoms: _62  and  _63
REMARK   27  A    between atoms: _66  and  _68
REMARK   28  A    between atoms: _68  and  _69
REMARK   29  A    between atoms: _68  and  _71
REMARK   30  A    between atoms: _71  and  _72
REMARK   31  A    between atoms: _75  and  _77
REMARK   32  A    between atoms: _77  and  _78
REMARK   33  A    between atoms: _80  and  _82
REMARK   34  A    between atoms: _82  and  _83
REMARK   35  A    between atoms: _82  and  _85
REMARK   36  A    between atoms: _85  and  _86
REMARK   37  A    between atoms: _89  and  _91
REMARK   38  A    between atoms: _91  and  _92
REMARK   39  A    between atoms: _91  and  _94
REMARK   40  A    between atoms: _94  and  _95
REMARK   41  A    between atoms: _97  and  _99
REMARK   42  A    between atoms: _99  and  _100
REMARK   43  A    between atoms: _99  and  _102
REMARK   44  A    between atoms: _102  and  _103
REMARK   45  A    between atoms: _113  and  _115
REMARK   46  A    between atoms: _115  and  _116
REMARK   47  A    between atoms: _115  and  _118
REMARK   48  A    between atoms: _118  and  _119
REMARK   49  A    between atoms: _125  and  _127
REMARK   50  A    between atoms: _127  and  _128
REMARK   51  A    between atoms: _127  and  _130
REMARK   52  A    between atoms: _130  and  _131
REMARK   53  A    between atoms: _136  and  _138
REMARK   54  A    between atoms: _138  and  _139
REMARK   55  A    between atoms: _138  and  _141
REMARK   56  A    between atoms: _141  and  _142
REMARK   57  A    between atoms: _142  and  _143
REMARK   58  A    between atoms: _146  and  _148
REMARK   59  A    between atoms: _148  and  _149
REMARK   60  A    between atoms: _148  and  _151
REMARK   61  A    between atoms: _151  and  _152
REMARK   62  A    between atoms: _162  and  _164
REMARK   63  A    between atoms: _164  and  _165
REMARK   64  A    between atoms: _167  and  _169
REMARK   65  A    between atoms: _169  and  _170
REMARK   66  A    between atoms: _169  and  _172
REMARK   67  A    between atoms: _172  and  _173
REMARK   68  A    between atoms: _178  and  _180
REMARK   69  A    between atoms: _180  and  _181
REMARK   70  A    between atoms: _180  and  _183
REMARK   71  A    between atoms: _183  and  _184
REMARK   72  A    between atoms: _187  and  _189
REMARK   73  A    between atoms: _189  and  _190
REMARK   74  A    between atoms: _192  and  _194
REMARK   75  A    between atoms: _194  and  _195
REMARK   76  A    between atoms: _194  and  _197
REMARK   77  A    between atoms: _197  and  _198
REMARK   78  A    between atoms: _208  and  _210
REMARK   79  A    between atoms: _210  and  _211
REMARK   80  A    between atoms: _210  and  _213
REMARK   81  A    between atoms: _213  and  _214
REMARK   82  A    between atoms: _216  and  _218
REMARK   83  A    between atoms: _218  and  _219
REMARK   84  A    between atoms: _218  and  _221
REMARK   85  A    between atoms: _221  and  _222
REMARK   86  A    between atoms: _222  and  _223
REMARK   87  A    between atoms: _225  and  _227
REMARK   88  A    between atoms: _227  and  _228
REMARK   89  A    between atoms: _227  and  _230
REMARK   90  A    between atoms: _233  and  _235
REMARK   91  A    between atoms: _235  and  _236
REMARK   92  A    between atoms: _238  and  _240
REMARK   93  A    between atoms: _240  and  _241
REMARK   94  A    between atoms: _240  and  _243
REMARK   95  A    between atoms: _243  and  _244
REMARK   96  A    between atoms: _247  and  _249
REMARK   97  A    between atoms: _249  and  _250
REMARK   98  A    between atoms: _252  and  _254
REMARK   99  A    between atoms: _254  and  _255
REMARK  100  A    between atoms: _254  and  _257
REMARK  101  A    between atoms: _257  and  _258
REMARK  102  A    between atoms: _260  and  _262
REMARK  103  A    between atoms: _262  and  _263
REMARK  104  A    between atoms: _262  and  _265
REMARK  105  A    between atoms: _265  and  _266
REMARK  106  A    between atoms: _272  and  _274
REMARK  107  A    between atoms: _274  and  _275
REMARK  108  A    between atoms: _274  and  _277
REMARK  109  A    between atoms: _277  and  _278
REMARK  110  A    between atoms: _278  and  _279
REMARK  111  A    between atoms: _284  and  _286
REMARK  112  A    between atoms: _286  and  _287
REMARK  113  A    between atoms: _286  and  _289
REMARK  114  A    between atoms: _289  and  _290
REMARK  115  A    between atoms: _293  and  _295
REMARK  116  A    between atoms: _295  and  _296
REMARK  117  A    between atoms: _295  and  _298
REMARK  118  A    between atoms: _298  and  _299
REMARK  119  A    between atoms: _302  and  _304
REMARK  120  A    between atoms: _304  and  _305
REMARK  121  A    between atoms: _304  and  _307
REMARK  122  A    between atoms: _307  and  _308
REMARK  123  A    between atoms: _311  and  _313
REMARK  124  A    between atoms: _313  and  _314
REMARK  125  A    between atoms: _313  and  _316
REMARK  126  A    between atoms: _316  and  _317
REMARK  127  A    between atoms: _322  and  _324
REMARK  128  A    between atoms: _324  and  _325
REMARK  129  A    between atoms: _324  and  _327
REMARK  130  A    between atoms: _327  and  _328
REMARK  131  A    between atoms: _333  and  _335
REMARK  132  A    between atoms: _335  and  _336
REMARK  133  A    between atoms: _335  and  _338
REMARK  134  A    between atoms: _338  and  _339
REMARK  135  A    between atoms: _344  and  _345
REMARK  136  A    between atoms: _347  and  _349
REMARK  137  A    between atoms: _349  and  _350
REMARK  138  A    between atoms: _352  and  _354
REMARK  139  A    between atoms: _354  and  _355
REMARK  140  A    between atoms: _354  and  _357
REMARK  141  A    between atoms: _357  and  _358
REMARK  142  A    between atoms: _363  and  _364
REMARK  143  A    between atoms: _366  and  _368
REMARK  144  A    between atoms: _368  and  _369
REMARK  145  A    between atoms: _368  and  _371
REMARK  146  A    between atoms: _371  and  _372
REMARK  147  A    between atoms: _375  and  _377
REMARK  148  A    between atoms: _377  and  _378
REMARK  149  A    between atoms: _377  and  _380
REMARK  150  A    between atoms: _380  and  _381
REMARK  151  A    between atoms: _384  and  _386
REMARK  152  A    between atoms: _386  and  _387
REMARK  153  A    between atoms: _386  and  _389
REMARK  154  A    between atoms: _389  and  _390
REMARK  155  A    between atoms: _390  and  _391
REMARK  156  A    between atoms: _394  and  _396
REMARK  157  A    between atoms: _396  and  _397
REMARK  158  A    between atoms: _396  and  _399
REMARK  159  A    between atoms: _402  and  _404
REMARK  160  A    between atoms: _404  and  _405
REMARK  161  A    between atoms: _404  and  _407
REMARK  162  A    between atoms: _407  and  _408
REMARK  163  A    between atoms: _408  and  _409
REMARK  164  A    between atoms: _411  and  _413
REMARK  165  A    between atoms: _413  and  _414
REMARK  166  A    between atoms: _413  and  _416
REMARK  167  A    between atoms: _416  and  _417
REMARK  168  A    between atoms: _420  and  _422
REMARK  169  A    between atoms: _422  and  _423
REMARK  170  A    between atoms: _422  and  _425
REMARK  171  A    between atoms: _425  and  _426
REMARK  172  A    between atoms: _431  and  _432
REMARK  173  A    between atoms: _434  and  _436
REMARK  174  A    between atoms: _436  and  _437
REMARK  175  A    between atoms: _436  and  _439
REMARK  176  A    between atoms: _439  and  _440
REMARK  177  A    between atoms: _445  and  _447
REMARK  178  A    between atoms: _447  and  _448
REMARK  179  A    between atoms: _447  and  _450
REMARK  180  A    between atoms: _450  and  _451
REMARK  181  A    between atoms: _454  and  _456
REMARK  182  A    between atoms: _456  and  _457
REMARK  183  A    between atoms: _456  and  _459
REMARK  184  A    between atoms: _459  and  _460
REMARK  185  A    between atoms: _465  and  _466
REMARK  186  A    between atoms: _468  and  _470
REMARK  187  A    between atoms: _470  and  _471
REMARK  188  A    between atoms: _470  and  _473
REMARK  189  A    between atoms: _473  and  _474
REMARK  190  A    between atoms: _477  and  _479
REMARK  191  A    between atoms: _479  and  _480
REMARK  192  A    between atoms: _482  and  _484
REMARK  193  A    between atoms: _484  and  _485
REMARK  194  A    between atoms: _484  and  _487
REMARK  195  A    between atoms: _487  and  _488
REMARK  196  A    between atoms: _488  and  _489
REMARK  197  A    between atoms: _489  and  _490
REMARK  198  A    between atoms: _499  and  _501
REMARK  199  A    between atoms: _501  and  _502
REMARK  200  A    between atoms: _501  and  _504
REMARK  201  A    between atoms: _504  and  _505
REMARK  202  A    between atoms: _508  and  _510
REMARK  203  A    between atoms: _510  and  _511
REMARK  204  A    between atoms: _510  and  _513
REMARK  205  A    between atoms: _515  and  _517
REMARK  206  A    between atoms: _517  and  _518
REMARK  207  A    between atoms: _517  and  _520
REMARK  208  A    between atoms: _520  and  _521
REMARK  209  A    between atoms: _524  and  _526
REMARK  210  A    between atoms: _526  and  _527
REMARK  211  A    between atoms: _526  and  _529
REMARK  212  A    between atoms: _529  and  _530
REMARK  213  A    between atoms: _533  and  _535
REMARK  214  A    between atoms: _535  and  _536
REMARK  215  A    between atoms: _535  and  _538
REMARK  216  A    between atoms: _541  and  _543
REMARK  217  A    between atoms: _543  and  _544
REMARK  218  A    between atoms: _547  and  _549
REMARK  219  A    between atoms: _549  and  _550
REMARK  220  A    between atoms: _552  and  _554
REMARK  221  A    between atoms: _554  and  _555
REMARK  222  A    between atoms: _554  and  _557
REMARK  223  A    between atoms: _557  and  _558
REMARK  224  A    between atoms: _561  and  _563
REMARK  225  A    between atoms: _563  and  _564
REMARK  226  A    between atoms: _563  and  _566
REMARK  227  A    between atoms: _566  and  _567
REMARK  228  A    between atoms: _572  and  _573
REMARK  229  A    between atoms: _575  and  _577
REMARK  230  A    between atoms: _577  and  _578
REMARK  231  A    between atoms: _577  and  _580
REMARK  232  A    between atoms: _580  and  _581
REMARK  233  A    between atoms: _586  and  _588
REMARK  234  A    between atoms: _588  and  _589
REMARK  235  A    between atoms: _588  and  _591
REMARK  236  A    between atoms: _591  and  _592
REMARK  237  A    between atoms: _595  and  _597
REMARK  238  A    between atoms: _597  and  _598
REMARK  239  A    between atoms: _597  and  _600
REMARK  240  A    between atoms: _602  and  _604
REMARK  241  A    between atoms: _604  and  _605
REMARK  242  A    between atoms: _604  and  _607
REMARK  243  A    between atoms: _609  and  _611
REMARK  244  A    between atoms: _611  and  _612
REMARK  245  A    between atoms: _611  and  _614
REMARK  246  A    between atoms: _614  and  _615
REMARK  247  A    between atoms: _620  and  _622
REMARK  248  A    between atoms: _622  and  _623
REMARK  249  A    between atoms: _622  and  _625
REMARK  250  A    between atoms: _625  and  _626
REMARK  251  A    between atoms: _626  and  _627
REMARK  252  A    between atoms: _630  and  _632
REMARK  253  A    between atoms: _632  and  _633
REMARK  254  A    between atoms: _632  and  _635
REMARK  255  A    between atoms: _635  and  _636
REMARK  256  A    between atoms: _639  and  _641
REMARK  257  A    between atoms: _641  and  _642
REMARK  258  A    between atoms: _641  and  _644
REMARK  259  A    between atoms: _647  and  _649
REMARK  260  A    between atoms: _649  and  _650
REMARK  261  A    between atoms: _649  and  _652
REMARK  262  A    between atoms: _652  and  _653
REMARK  263  A    between atoms: _656  and  _658
REMARK  264  A    between atoms: _658  and  _659
REMARK  265  A    between atoms: _658  and  _661
REMARK  266  A    between atoms: _661  and  _662
REMARK  267  A    between atoms: _667  and  _668
REMARK  268  A    between atoms: _670  and  _672
REMARK  269  A    between atoms: _672  and  _673
REMARK  270  A    between atoms: _672  and  _675
REMARK  271  A    between atoms: _675  and  _676
REMARK  272  A    between atoms: _678  and  _680
REMARK  273  A    between atoms: _680  and  _681
REMARK  274  A    between atoms: _680  and  _683
REMARK  275  A    between atoms: _686  and  _688
REMARK  276  A    between atoms: _688  and  _689
REMARK  277  A    between atoms: _691  and  _693
REMARK  278  A    between atoms: _693  and  _694
REMARK  279  A    between atoms: _697  and  _699
REMARK  280  A    between atoms: _699  and  _700
REMARK  281  A    between atoms: _699  and  _702
REMARK  282  A    between atoms: _702  and  _703
REMARK  283  A    between atoms: _706  and  _708
REMARK  284  A    between atoms: _708  and  _709
REMARK  285  A    between atoms: _708  and  _711
REMARK  286  A    between atoms: _711  and  _712
REMARK  287  A    between atoms: _714  and  _716
REMARK  288  A    between atoms: _716  and  _717
REMARK  289  A    between atoms: _720  and  _722
REMARK  290  A    between atoms: _722  and  _723
REMARK  291  A    between atoms: _722  and  _725
REMARK  292  A    between atoms: _725  and  _726
REMARK  293  A    between atoms: _731  and  _733
REMARK  294  A    between atoms: _733  and  _734
REMARK  295  A    between atoms: _733  and  _736
REMARK  296  A    between atoms: _736  and  _737
REMARK                            x       y       z     vdW  Elec       q    Type
REMARK                         _______ _______ _______ _____ _____    ______ ____
ROOT
ATOM      1  O   HOH     1     -20.377  23.471 -67.463  0.00  0.00    +0.000 OA
ENDROOT
TORSDOF 0
REMARK  Name = ../refined-set-2016/2wva/2wva_pocket.pdb
REMARK  296 active torsions:
REMARK  status: ('A' for Active; 'I' for Inactive)
REMARK    1  A    between atoms: _1  and  _3
REMARK    2  A    between atoms: _3  and  _4
REMARK    3  A    between atoms: _3  and  _6
REMARK    4  A    between atoms: _6  and  _7
REMARK    5  A    between atoms: _10  and  _12
REMARK    6  A    between atoms: _12  and  _13
REMARK    7  A    between atoms: _12  and  _15
REMARK    8  A    between atoms: _15  and  _16
REMARK    9  A    between atoms: _22  and  _24
REMARK   10  A    between atoms: _24  and  _25
REMARK   11  A    between atoms: _24  and  _27
REMARK   12  A    between atoms: _27  and  _28
REMARK   13  A    between atoms: _31  and  _33
REMARK   14  A    between atoms: _33  and  _34
REMARK   15  A    between atoms: _33  and  _36
REMARK   16  A    between atoms: _36  and  _37
REMARK   17  A    between atoms: _42  and  _43
REMARK   18  A    between atoms: _45  and  _47
REMARK   19  A    between atoms: _47  and  _48
REMARK   20  A    between atoms: _47  and  _50
REMARK   21  A    between atoms: _50  and  _51
REMARK   22  A    between atoms: _56  and  _58
REMARK   23  A    between atoms: _58  and  _59
REMARK   24  A    between atoms: _58  and  _61
REMARK   25  A    between atoms: _61  and  _62
REMARK   26  A    between atoms: _62  and  _63
REMARK   27  A    between atoms: _66  and  _68
REMARK   28  A    between atoms: _68  and  _69
REMARK   29  A    between atoms: _68  and  _71
REMARK   30  A    between atoms: _71  and  _72
REMARK   31  A    between atoms: _75  and  _77
REMARK   32  A    between atoms: _77  and  _78
REMARK   33  A    between atoms: _80  and  _82
REMARK   34  A    between atoms: _82  and  _83
REMARK   35  A    between atoms: _82  and  _85
REMARK   36  A    between atoms: _85  and  _86
REMARK   37  A    between atoms: _89  and  _91
REMARK   38  A    between atoms: _91  and  _92
REMARK   39  A    between atoms: _91  and  _94
REMARK   40  A    between atoms: _94  and  _95
REMARK   41  A    between atoms: _97  and  _99
REMARK   42  A    between atoms: _99  and  _100
REMARK   43  A    between atoms: _99  and  _102
REMARK   44  A    between atoms: _102  and  _103
REMARK   45  A    between atoms: _113  and  _115
REMARK   46  A    between atoms: _115  and  _116
REMARK   47  A    between atoms: _115  and  _118
REMARK   48  A    between atoms: _118  and  _119
REMARK   49  A    between atoms: _125  and  _127
REMARK   50  A    between atoms: _127  and  _128
REMARK   51  A    between atoms: _127  and  _130
REMARK   52  A    between atoms: _130  and  _131
REMARK   53  A    between atoms: _136  and  _138
REMARK   54  A    between atoms: _138  and  _139
REMARK   55  A    between atoms: _138  and  _141
REMARK   56  A    between atoms: _141  and  _142
REMARK   57  A    between atoms: _142  and  _143
REMARK   58  A    between atoms: _146  and  _148
REMARK   59  A    between atoms: _148  and  _149
REMARK   60  A    between atoms: _148  and  _151
REMARK   61  A    between atoms: _151  and  _152
REMARK   62  A    between atoms: _162  and  _164
REMARK   63  A    between atoms: _164  and  _165
REMARK   64  A    between atoms: _167  and  _169
REMARK   65  A    between atoms: _169  and  _170
REMARK   66  A    between atoms: _169  and  _172
REMARK   67  A    between atoms: _172  and  _173
REMARK   68  A    between atoms: _178  and  _180
REMARK   69  A    between atoms: _180  and  _181
REMARK   70  A    between atoms: _180  and  _183
REMARK   71  A    between atoms: _183  and  _184
REMARK   72  A    between atoms: _187  and  _189
REMARK   73  A    between atoms: _189  and  _190
REMARK   74  A    between atoms: _192  and  _194
REMARK   75  A    between atoms: _194  and  _195
REMARK   76  A    between atoms: _194  and  _197
REMARK   77  A    between atoms: _197  and  _198
REMARK   78  A    between atoms: _208  and  _210
REMARK   79  A    between atoms: _210  and  _211
REMARK   80  A    between atoms: _210  and  _213
REMARK   81  A    between atoms: _213  and  _214
REMARK   82  A    between atoms: _216  and  _218
REMARK   83  A    between atoms: _218  and  _219
REMARK   84  A    between atoms: _218  and  _221
REMARK   85  A    between atoms: _221  and  _222
REMARK   86  A    between atoms: _222  and  _223
REMARK   87  A    between atoms: _225  and  _227
REMARK   88  A    between atoms: _227  and  _228
REMARK   89  A    between atoms: _227  and  _230
REMARK   90  A    between atoms: _233  and  _235
REMARK   91  A    between atoms: _235  and  _236
REMARK   92  A    between atoms: _238  and  _240
REMARK   93  A    between atoms: _240  and  _241
REMARK   94  A    between atoms: _240  and  _243
REMARK   95  A    between atoms: _243  and  _244
REMARK   96  A    between atoms: _247  and  _249
REMARK   97  A    between atoms: _249  and  _250
REMARK   98  A    between atoms: _252  and  _254
REMARK   99  A    between atoms: _254  and  _255
REMARK  100  A    between atoms: _254  and  _257
REMARK  101  A    between atoms: _257  and  _258
REMARK  102  A    between atoms: _260  and  _262
REMARK  103  A    between atoms: _262  and  _263
REMARK  104  A    between atoms: _262  and  _265
REMARK  105  A    between atoms: _265  and  _266
REMARK  106  A    between atoms: _272  and  _274
REMARK  107  A    between atoms: _274  and  _275
REMARK  108  A    between atoms: _274  and  _277
REMARK  109  A    between atoms: _277  and  _278
REMARK  110  A    between atoms: _278  and  _279
REMARK  111  A    between atoms: _284  and  _286
REMARK  112  A    between atoms: _286  and  _287
REMARK  113  A    between atoms: _286  and  _289
REMARK  114  A    between atoms: _289  and  _290
REMARK  115  A    between atoms: _293  and  _295
REMARK  116  A    between atoms: _295  and  _296
REMARK  117  A    between atoms: _295  and  _298
REMARK  118  A    between atoms: _298  and  _299
REMARK  119  A    between atoms: _302  and  _304
REMARK  120  A    between atoms: _304  and  _305
REMARK  121  A    between atoms: _304  and  _307
REMARK  122  A    between atoms: _307  and  _308
REMARK  123  A    between atoms: _311  and  _313
REMARK  124  A    between atoms: _313  and  _314
REMARK  125  A    between atoms: _313  and  _316
REMARK  126  A    between atoms: _316  and  _317
REMARK  127  A    between atoms: _322  and  _324
REMARK  128  A    between atoms: _324  and  _325
REMARK  129  A    between atoms: _324  and  _327
REMARK  130  A    between atoms: _327  and  _328
REMARK  131  A    between atoms: _333  and  _335
REMARK  132  A    between atoms: _335  and  _336
REMARK  133  A    between atoms: _335  and  _338
REMARK  134  A    between atoms: _338  and  _339
REMARK  135  A    between atoms: _344  and  _345
REMARK  136  A    between atoms: _347  and  _349
REMARK  137  A    between atoms: _349  and  _350
REMARK  138  A    between atoms: _352  and  _354
REMARK  139  A    between atoms: _354  and  _355
REMARK  140  A    between atoms: _354  and  _357
REMARK  141  A    between atoms: _357  and  _358
REMARK  142  A    between atoms: _363  and  _364
REMARK  143  A    between atoms: _366  and  _368
REMARK  144  A    between atoms: _368  and  _369
REMARK  145  A    between atoms: _368  and  _371
REMARK  146  A    between atoms: _371  and  _372
REMARK  147  A    between atoms: _375  and  _377
REMARK  148  A    between atoms: _377  and  _378
REMARK  149  A    between atoms: _377  and  _380
REMARK  150  A    between atoms: _380  and  _381
REMARK  151  A    between atoms: _384  and  _386
REMARK  152  A    between atoms: _386  and  _387
REMARK  153  A    between atoms: _386  and  _389
REMARK  154  A    between atoms: _389  and  _390
REMARK  155  A    between atoms: _390  and  _391
REMARK  156  A    between atoms: _394  and  _396
REMARK  157  A    between atoms: _396  and  _397
REMARK  158  A    between atoms: _396  and  _399
REMARK  159  A    between atoms: _402  and  _404
REMARK  160  A    between atoms: _404  and  _405
REMARK  161  A    between atoms: _404  and  _407
REMARK  162  A    between atoms: _407  and  _408
REMARK  163  A    between atoms: _408  and  _409
REMARK  164  A    between atoms: _411  and  _413
REMARK  165  A    between atoms: _413  and  _414
REMARK  166  A    between atoms: _413  and  _416
REMARK  167  A    between atoms: _416  and  _417
REMARK  168  A    between atoms: _420  and  _422
REMARK  169  A    between atoms: _422  and  _423
REMARK  170  A    between atoms: _422  and  _425
REMARK  171  A    between atoms: _425  and  _426
REMARK  172  A    between atoms: _431  and  _432
REMARK  173  A    between atoms: _434  and  _436
REMARK  174  A    between atoms: _436  and  _437
REMARK  175  A    between atoms: _436  and  _439
REMARK  176  A    between atoms: _439  and  _440
REMARK  177  A    between atoms: _445  and  _447
REMARK  178  A    between atoms: _447  and  _448
REMARK  179  A    between atoms: _447  and  _450
REMARK  180  A    between atoms: _450  and  _451
REMARK  181  A    between atoms: _454  and  _456
REMARK  182  A    between atoms: _456  and  _457
REMARK  183  A    between atoms: _456  and  _459
REMARK  184  A    between atoms: _459  and  _460
REMARK  185  A    between atoms: _465  and  _466
REMARK  186  A    between atoms: _468  and  _470
REMARK  187  A    between atoms: _470  and  _471
REMARK  188  A    between atoms: _470  and  _473
REMARK  189  A    between atoms: _473  and  _474
REMARK  190  A    between atoms: _477  and  _479
REMARK  191  A    between atoms: _479  and  _480
REMARK  192  A    between atoms: _482  and  _484
REMARK  193  A    between atoms: _484  and  _485
REMARK  194  A    between atoms: _484  and  _487
REMARK  195  A    between atoms: _487  and  _488
REMARK  196  A    between atoms: _488  and  _489
REMARK  197  A    between atoms: _489  and  _490
REMARK  198  A    between atoms: _499  and  _501
REMARK  199  A    between atoms: _501  and  _502
REMARK  200  A    between atoms: _501  and  _504
REMARK  201  A    between atoms: _504  and  _505
REMARK  202  A    between atoms: _508  and  _510
REMARK  203  A    between atoms: _510  and  _511
REMARK  204  A    between atoms: _510  and  _513
REMARK  205  A    between atoms: _515  and  _517
REMARK  206  A    between atoms: _517  and  _518
REMARK  207  A    between atoms: _517  and  _520
REMARK  208  A    between atoms: _520  and  _521
REMARK  209  A    between atoms: _524  and  _526
REMARK  210  A    between atoms: _526  and  _527
REMARK  211  A    between atoms: _526  and  _529
REMARK  212  A    between atoms: _529  and  _530
REMARK  213  A    between atoms: _533  and  _535
REMARK  214  A    between atoms: _535  and  _536
REMARK  215  A    between atoms: _535  and  _538
REMARK  216  A    between atoms: _541  and  _543
REMARK  217  A    between atoms: _543  and  _544
REMARK  218  A    between atoms: _547  and  _549
REMARK  219  A    between atoms: _549  and  _550
REMARK  220  A    between atoms: _552  and  _554
REMARK  221  A    between atoms: _554  and  _555
REMARK  222  A    between atoms: _554  and  _557
REMARK  223  A    between atoms: _557  and  _558
REMARK  224  A    between atoms: _561  and  _563
REMARK  225  A    between atoms: _563  and  _564
REMARK  226  A    between atoms: _563  and  _566
REMARK  227  A    between atoms: _566  and  _567
REMARK  228  A    between atoms: _572  and  _573
REMARK  229  A    between atoms: _575  and  _577
REMARK  230  A    between atoms: _577  and  _578
REMARK  231  A    between atoms: _577  and  _580
REMARK  232  A    between atoms: _580  and  _581
REMARK  233  A    between atoms: _586  and  _588
REMARK  234  A    between atoms: _588  and  _589
REMARK  235  A    between atoms: _588  and  _591
REMARK  236  A    between atoms: _591  and  _592
REMARK  237  A    between atoms: _595  and  _597
REMARK  238  A    between atoms: _597  and  _598
REMARK  239  A    between atoms: _597  and  _600
REMARK  240  A    between atoms: _602  and  _604
REMARK  241  A    between atoms: _604  and  _605
REMARK  242  A    between atoms: _604  and  _607
REMARK  243  A    between atoms: _609  and  _611
REMARK  244  A    between atoms: _611  and  _612
REMARK  245  A    between atoms: _611  and  _614
REMARK  246  A    between atoms: _614  and  _615
REMARK  247  A    between atoms: _620  and  _622
REMARK  248  A    between atoms: _622  and  _623
REMARK  249  A    between atoms: _622  and  _625
REMARK  250  A    between atoms: _625  and  _626
REMARK  251  A    between atoms: _626  and  _627
REMARK  252  A    between atoms: _630  and  _632
REMARK  253  A    between atoms: _632  and  _633
REMARK  254  A    between atoms: _632  and  _635
REMARK  255  A    between atoms: _635  and  _636
REMARK  256  A    between atoms: _639  and  _641
REMARK  257  A    between atoms: _641  and  _642
REMARK  258  A    between atoms: _641  and  _644
REMARK  259  A    between atoms: _647  and  _649
REMARK  260  A    between atoms: _649  and  _650
REMARK  261  A    between atoms: _649  and  _652
REMARK  262  A    between atoms: _652  and  _653
REMARK  263  A    between atoms: _656  and  _658
REMARK  264  A    between atoms: _658  and  _659
REMARK  265  A    between atoms: _658  and  _661
REMARK  266  A    between atoms: _661  and  _662
REMARK  267  A    between atoms: _667  and  _668
REMARK  268  A    between atoms: _670  and  _672
REMARK  269  A    between atoms: _672  and  _673
REMARK  270  A    between atoms: _672  and  _675
REMARK  271  A    between atoms: _675  and  _676
REMARK  272  A    between atoms: _678  and  _680
REMARK  273  A    between atoms: _680  and  _681
REMARK  274  A    between atoms: _680  and  _683
REMARK  275  A    between atoms: _686  and  _688
REMARK  276  A    between atoms: _688  and  _689
REMARK  277  A    between atoms: _691  and  _693
REMARK  278  A    between atoms: _693  and  _694
REMARK  279  A    between atoms: _697  and  _699
REMARK  280  A    between atoms: _699  and  _700
REMARK  281  A    between atoms: _699  and  _702
REMARK  282  A    between atoms: _702  and  _703
REMARK  283  A    between atoms: _706  and  _708
REMARK  284  A    between atoms: _708  and  _709
REMARK  285  A    between atoms: _708  and  _711
REMARK  286  A    between atoms: _711  and  _712
REMARK  287  A    between atoms: _714  and  _716
REMARK  288  A    between atoms: _716  and  _717
REMARK  289  A    between atoms: _720  and  _722
REMARK  290  A    between atoms: _722  and  _723
REMARK  291  A    between atoms: _722  and  _725
REMARK  292  A    between atoms: _725  and  _726
REMARK  293  A    between atoms: _731  and  _733
REMARK  294  A    between atoms: _733  and  _734
REMARK  295  A    between atoms: _733  and  _736
REMARK  296  A    between atoms: _736  and  _737
REMARK                            x       y       z     vdW  Elec       q    Type
REMARK                         _______ _______ _______ _____ _____    ______ ____
ROOT
ATOM      1  O   HOH     1     -19.142  35.973 -68.138  0.00  0.00    +0.000 OA
ENDROOT
TORSDOF 0
REMARK  Name = ../refined-set-2016/2wva/2wva_pocket.pdb
REMARK  296 active torsions:
REMARK  status: ('A' for Active; 'I' for Inactive)
REMARK    1  A    between atoms: _1  and  _3
REMARK    2  A    between atoms: _3  and  _4
REMARK    3  A    between atoms: _3  and  _6
REMARK    4  A    between atoms: _6  and  _7
REMARK    5  A    between atoms: _10  and  _12
REMARK    6  A    between atoms: _12  and  _13
REMARK    7  A    between atoms: _12  and  _15
REMARK    8  A    between atoms: _15  and  _16
REMARK    9  A    between atoms: _22  and  _24
REMARK   10  A    between atoms: _24  and  _25
REMARK   11  A    between atoms: _24  and  _27
REMARK   12  A    between atoms: _27  and  _28
REMARK   13  A    between atoms: _31  and  _33
REMARK   14  A    between atoms: _33  and  _34
REMARK   15  A    between atoms: _33  and  _36
REMARK   16  A    between atoms: _36  and  _37
REMARK   17  A    between atoms: _42  and  _43
REMARK   18  A    between atoms: _45  and  _47
REMARK   19  A    between atoms: _47  and  _48
REMARK   20  A    between atoms: _47  and  _50
REMARK   21  A    between atoms: _50  and  _51
REMARK   22  A    between atoms: _56  and  _58
REMARK   23  A    between atoms: _58  and  _59
REMARK   24  A    between atoms: _58  and  _61
REMARK   25  A    between atoms: _61  and  _62
REMARK   26  A    between atoms: _62  and  _63
REMARK   27  A    between atoms: _66  and  _68
REMARK   28  A    between atoms: _68  and  _69
REMARK   29  A    between atoms: _68  and  _71
REMARK   30  A    between atoms: _71  and  _72
REMARK   31  A    between atoms: _75  and  _77
REMARK   32  A    between atoms: _77  and  _78
REMARK   33  A    between atoms: _80  and  _82
REMARK   34  A    between atoms: _82  and  _83
REMARK   35  A    between atoms: _82  and  _85
REMARK   36  A    between atoms: _85  and  _86
REMARK   37  A    between atoms: _89  and  _91
REMARK   38  A    between atoms: _91  and  _92
REMARK   39  A    between atoms: _91  and  _94
REMARK   40  A    between atoms: _94  and  _95
REMARK   41  A    between atoms: _97  and  _99
REMARK   42  A    between atoms: _99  and  _100
REMARK   43  A    between atoms: _99  and  _102
REMARK   44  A    between atoms: _102  and  _103
REMARK   45  A    between atoms: _113  and  _115
REMARK   46  A    between atoms: _115  and  _116
REMARK   47  A    between atoms: _115  and  _118
REMARK   48  A    between atoms: _118  and  _119
REMARK   49  A    between atoms: _125  and  _127
REMARK   50  A    between atoms: _127  and  _128
REMARK   51  A    between atoms: _127  and  _130
REMARK   52  A    between atoms: _130  and  _131
REMARK   53  A    between atoms: _136  and  _138
REMARK   54  A    between atoms: _138  and  _139
REMARK   55  A    between atoms: _138  and  _141
REMARK   56  A    between atoms: _141  and  _142
REMARK   57  A    between atoms: _142  and  _143
REMARK   58  A    between atoms: _146  and  _148
REMARK   59  A    between atoms: _148  and  _149
REMARK   60  A    between atoms: _148  and  _151
REMARK   61  A    between atoms: _151  and  _152
REMARK   62  A    between atoms: _162  and  _164
REMARK   63  A    between atoms: _164  and  _165
REMARK   64  A    between atoms: _167  and  _169
REMARK   65  A    between atoms: _169  and  _170
REMARK   66  A    between atoms: _169  and  _172
REMARK   67  A    between atoms: _172  and  _173
REMARK   68  A    between atoms: _178  and  _180
REMARK   69  A    between atoms: _180  and  _181
REMARK   70  A    between atoms: _180  and  _183
REMARK   71  A    between atoms: _183  and  _184
REMARK   72  A    between atoms: _187  and  _189
REMARK   73  A    between atoms: _189  and  _190
REMARK   74  A    between atoms: _192  and  _194
REMARK   75  A    between atoms: _194  and  _195
REMARK   76  A    between atoms: _194  and  _197
REMARK   77  A    between atoms: _197  and  _198
REMARK   78  A    between atoms: _208  and  _210
REMARK   79  A    between atoms: _210  and  _211
REMARK   80  A    between atoms: _210  and  _213
REMARK   81  A    between atoms: _213  and  _214
REMARK   82  A    between atoms: _216  and  _218
REMARK   83  A    between atoms: _218  and  _219
REMARK   84  A    between atoms: _218  and  _221
REMARK   85  A    between atoms: _221  and  _222
REMARK   86  A    between atoms: _222  and  _223
REMARK   87  A    between atoms: _225  and  _227
REMARK   88  A    between atoms: _227  and  _228
REMARK   89  A    between atoms: _227  and  _230
REMARK   90  A    between atoms: _233  and  _235
REMARK   91  A    between atoms: _235  and  _236
REMARK   92  A    between atoms: _238  and  _240
REMARK   93  A    between atoms: _240  and  _241
REMARK   94  A    between atoms: _240  and  _243
REMARK   95  A    between atoms: _243  and  _244
REMARK   96  A    between atoms: _247  and  _249
REMARK   97  A    between atoms: _249  and  _250
REMARK   98  A    between atoms: _252  and  _254
REMARK   99  A    between atoms: _254  and  _255
REMARK  100  A    between atoms: _254  and  _257
REMARK  101  A    between atoms: _257  and  _258
REMARK  102  A    between atoms: _260  and  _262
REMARK  103  A    between atoms: _262  and  _263
REMARK  104  A    between atoms: _262  and  _265
REMARK  105  A    between atoms: _265  and  _266
REMARK  106  A    between atoms: _272  and  _274
REMARK  107  A    between atoms: _274  and  _275
REMARK  108  A    between atoms: _274  and  _277
REMARK  109  A    between atoms: _277  and  _278
REMARK  110  A    between atoms: _278  and  _279
REMARK  111  A    between atoms: _284  and  _286
REMARK  112  A    between atoms: _286  and  _287
REMARK  113  A    between atoms: _286  and  _289
REMARK  114  A    between atoms: _289  and  _290
REMARK  115  A    between atoms: _293  and  _295
REMARK  116  A    between atoms: _295  and  _296
REMARK  117  A    between atoms: _295  and  _298
REMARK  118  A    between atoms: _298  and  _299
REMARK  119  A    between atoms: _302  and  _304
REMARK  120  A    between atoms: _304  and  _305
REMARK  121  A    between atoms: _304  and  _307
REMARK  122  A    between atoms: _307  and  _308
REMARK  123  A    between atoms: _311  and  _313
REMARK  124  A    between atoms: _313  and  _314
REMARK  125  A    between atoms: _313  and  _316
REMARK  126  A    between atoms: _316  and  _317
REMARK  127  A    between atoms: _322  and  _324
REMARK  128  A    between atoms: _324  and  _325
REMARK  129  A    between atoms: _324  and  _327
REMARK  130  A    between atoms: _327  and  _328
REMARK  131  A    between atoms: _333  and  _335
REMARK  132  A    between atoms: _335  and  _336
REMARK  133  A    between atoms: _335  and  _338
REMARK  134  A    between atoms: _338  and  _339
REMARK  135  A    between atoms: _344  and  _345
REMARK  136  A    between atoms: _347  and  _349
REMARK  137  A    between atoms: _349  and  _350
REMARK  138  A    between atoms: _352  and  _354
REMARK  139  A    between atoms: _354  and  _355
REMARK  140  A    between atoms: _354  and  _357
REMARK  141  A    between atoms: _357  and  _358
REMARK  142  A    between atoms: _363  and  _364
REMARK  143  A    between atoms: _366  and  _368
REMARK  144  A    between atoms: _368  and  _369
REMARK  145  A    between atoms: _368  and  _371
REMARK  146  A    between atoms: _371  and  _372
REMARK  147  A    between atoms: _375  and  _377
REMARK  148  A    between atoms: _377  and  _378
REMARK  149  A    between atoms: _377  and  _380
REMARK  150  A    between atoms: _380  and  _381
REMARK  151  A    between atoms: _384  and  _386
REMARK  152  A    between atoms: _386  and  _387
REMARK  153  A    between atoms: _386  and  _389
REMARK  154  A    between atoms: _389  and  _390
REMARK  155  A    between atoms: _390  and  _391
REMARK  156  A    between atoms: _394  and  _396
REMARK  157  A    between atoms: _396  and  _397
REMARK  158  A    between atoms: _396  and  _399
REMARK  159  A    between atoms: _402  and  _404
REMARK  160  A    between atoms: _404  and  _405
REMARK  161  A    between atoms: _404  and  _407
REMARK  162  A    between atoms: _407  and  _408
REMARK  163  A    between atoms: _408  and  _409
REMARK  164  A    between atoms: _411  and  _413
REMARK  165  A    between atoms: _413  and  _414
REMARK  166  A    between atoms: _413  and  _416
REMARK  167  A    between atoms: _416  and  _417
REMARK  168  A    between atoms: _420  and  _422
REMARK  169  A    between atoms: _422  and  _423
REMARK  170  A    between atoms: _422  and  _425
REMARK  171  A    between atoms: _425  and  _426
REMARK  172  A    between atoms: _431  and  _432
REMARK  173  A    between atoms: _434  and  _436
REMARK  174  A    between atoms: _436  and  _437
REMARK  175  A    between atoms: _436  and  _439
REMARK  176  A    between atoms: _439  and  _440
REMARK  177  A    between atoms: _445  and  _447
REMARK  178  A    between atoms: _447  and  _448
REMARK  179  A    between atoms: _447  and  _450
REMARK  180  A    between atoms: _450  and  _451
REMARK  181  A    between atoms: _454  and  _456
REMARK  182  A    between atoms: _456  and  _457
REMARK  183  A    between atoms: _456  and  _459
REMARK  184  A    between atoms: _459  and  _460
REMARK  185  A    between atoms: _465  and  _466
REMARK  186  A    between atoms: _468  and  _470
REMARK  187  A    between atoms: _470  and  _471
REMARK  188  A    between atoms: _470  and  _473
REMARK  189  A    between atoms: _473  and  _474
REMARK  190  A    between atoms: _477  and  _479
REMARK  191  A    between atoms: _479  and  _480
REMARK  192  A    between atoms: _482  and  _484
REMARK  193  A    between atoms: _484  and  _485
REMARK  194  A    between atoms: _484  and  _487
REMARK  195  A    between atoms: _487  and  _488
REMARK  196  A    between atoms: _488  and  _489
REMARK  197  A    between atoms: _489  and  _490
REMARK  198  A    between atoms: _499  and  _501
REMARK  199  A    between atoms: _501  and  _502
REMARK  200  A    between atoms: _501  and  _504
REMARK  201  A    between atoms: _504  and  _505
REMARK  202  A    between atoms: _508  and  _510
REMARK  203  A    between atoms: _510  and  _511
REMARK  204  A    between atoms: _510  and  _513
REMARK  205  A    between atoms: _515  and  _517
REMARK  206  A    between atoms: _517  and  _518
REMARK  207  A    between atoms: _517  and  _520
REMARK  208  A    between atoms: _520  and  _521
REMARK  209  A    between atoms: _524  and  _526
REMARK  210  A    between atoms: _526  and  _527
REMARK  211  A    between atoms: _526  and  _529
REMARK  212  A    between atoms: _529  and  _530
REMARK  213  A    between atoms: _533  and  _535
REMARK  214  A    between atoms: _535  and  _536
REMARK  215  A    between atoms: _535  and  _538
REMARK  216  A    between atoms: _541  and  _543
REMARK  217  A    between atoms: _543  and  _544
REMARK  218  A    between atoms: _547  and  _549
REMARK  219  A    between atoms: _549  and  _550
REMARK  220  A    between atoms: _552  and  _554
REMARK  221  A    between atoms: _554  and  _555
REMARK  222  A    between atoms: _554  and  _557
REMARK  223  A    between atoms: _557  and  _558
REMARK  224  A    between atoms: _561  and  _563
REMARK  225  A    between atoms: _563  and  _564
REMARK  226  A    between atoms: _563  and  _566
REMARK  227  A    between atoms: _566  and  _567
REMARK  228  A    between atoms: _572  and  _573
REMARK  229  A    between atoms: _575  and  _577
REMARK  230  A    between atoms: _577  and  _578
REMARK  231  A    between atoms: _577  and  _580
REMARK  232  A    between atoms: _580  and  _581
REMARK  233  A    between atoms: _586  and  _588
REMARK  234  A    between atoms: _588  and  _589
REMARK  235  A    between atoms: _588  and  _591
REMARK  236  A    between atoms: _591  and  _592
REMARK  237  A    between atoms: _595  and  _597
REMARK  238  A    between atoms: _597  and  _598
REMARK  239  A    between atoms: _597  and  _600
REMARK  240  A    between atoms: _602  and  _604
REMARK  241  A    between atoms: _604  and  _605
REMARK  242  A    between atoms: _604  and  _607
REMARK  243  A    between atoms: _609  and  _611
REMARK  244  A    between atoms: _611  and  _612
REMARK  245  A    between atoms: _611  and  _614
REMARK  246  A    between atoms: _614  and  _615
REMARK  247  A    between atoms: _620  and  _622
REMARK  248  A    between atoms: _622  and  _623
REMARK  249  A    between atoms: _622  and  _625
REMARK  250  A    between atoms: _625  and  _626
REMARK  251  A    between atoms: _626  and  _627
REMARK  252  A    between atoms: _630  and  _632
REMARK  253  A    between atoms: _632  and  _633
REMARK  254  A    between atoms: _632  and  _635
REMARK  255  A    between atoms: _635  and  _636
REMARK  256  A    between atoms: _639  and  _641
REMARK  257  A    between atoms: _641  and  _642
REMARK  258  A    between atoms: _641  and  _644
REMARK  259  A    between atoms: _647  and  _649
REMARK  260  A    between atoms: _649  and  _650
REMARK  261  A    between atoms: _649  and  _652
REMARK  262  A    between atoms: _652  and  _653
REMARK  263  A    between atoms: _656  and  _658
REMARK  264  A    between atoms: _658  and  _659
REMARK  265  A    between atoms: _658  and  _661
REMARK  266  A    between atoms: _661  and  _662
REMARK  267  A    between atoms: _667  and  _668
REMARK  268  A    between atoms: _670  and  _672
REMARK  269  A    between atoms: _672  and  _673
REMARK  270  A    between atoms: _672  and  _675
REMARK  271  A    between atoms: _675  and  _676
REMARK  272  A    between atoms: _678  and  _680
REMARK  273  A    between atoms: _680  and  _681
REMARK  274  A    between atoms: _680  and  _683
REMARK  275  A    between atoms: _686  and  _688
REMARK  276  A    between atoms: _688  and  _689
REMARK  277  A    between atoms: _691  and  _693
REMARK  278  A    between atoms: _693  and  _694
REMARK  279  A    between atoms: _697  and  _699
REMARK  280  A    between atoms: _699  and  _700
REMARK  281  A    between atoms: _699  and  _702
REMARK  282  A    between atoms: _702  and  _703
REMARK  283  A    between atoms: _706  and  _708
REMARK  284  A    between atoms: _708  and  _709
REMARK  285  A    between atoms: _708  and  _711
REMARK  286  A    between atoms: _711  and  _712
REMARK  287  A    between atoms: _714  and  _716
REMARK  288  A    between atoms: _716  and  _717
REMARK  289  A    between atoms: _720  and  _722
REMARK  290  A    between atoms: _722  and  _723
REMARK  291  A    between atoms: _722  and  _725
REMARK  292  A    between atoms: _725  and  _726
REMARK  293  A    between atoms: _731  and  _733
REMARK  294  A    between atoms: _733  and  _734
REMARK  295  A    between atoms: _733  and  _736
REMARK  296  A    between atoms: _736  and  _737
REMARK                            x       y       z     vdW  Elec       q    Type
REMARK                         _______ _______ _______ _____ _____    ______ ____
ROOT
ATOM      1  O   HOH     1     -25.160  35.997 -77.784  0.00  0.00    +0.000 OA
ENDROOT
TORSDOF 0
REMARK  Name = ../refined-set-2016/2wva/2wva_pocket.pdb
REMARK  296 active torsions:
REMARK  status: ('A' for Active; 'I' for Inactive)
REMARK    1  A    between atoms: _1  and  _3
REMARK    2  A    between atoms: _3  and  _4
REMARK    3  A    between atoms: _3  and  _6
REMARK    4  A    between atoms: _6  and  _7
REMARK    5  A    between atoms: _10  and  _12
REMARK    6  A    between atoms: _12  and  _13
REMARK    7  A    between atoms: _12  and  _15
REMARK    8  A    between atoms: _15  and  _16
REMARK    9  A    between atoms: _22  and  _24
REMARK   10  A    between atoms: _24  and  _25
REMARK   11  A    between atoms: _24  and  _27
REMARK   12  A    between atoms: _27  and  _28
REMARK   13  A    between atoms: _31  and  _33
REMARK   14  A    between atoms: _33  and  _34
REMARK   15  A    between atoms: _33  and  _36
REMARK   16  A    between atoms: _36  and  _37
REMARK   17  A    between atoms: _42  and  _43
REMARK   18  A    between atoms: _45  and  _47
REMARK   19  A    between atoms: _47  and  _48
REMARK   20  A    between atoms: _47  and  _50
REMARK   21  A    between atoms: _50  and  _51
REMARK   22  A    between atoms: _56  and  _58
REMARK   23  A    between atoms: _58  and  _59
REMARK   24  A    between atoms: _58  and  _61
REMARK   25  A    between atoms: _61  and  _62
REMARK   26  A    between atoms: _62  and  _63
REMARK   27  A    between atoms: _66  and  _68
REMARK   28  A    between atoms: _68  and  _69
REMARK   29  A    between atoms: _68  and  _71
REMARK   30  A    between atoms: _71  and  _72
REMARK   31  A    between atoms: _75  and  _77
REMARK   32  A    between atoms: _77  and  _78
REMARK   33  A    between atoms: _80  and  _82
REMARK   34  A    between atoms: _82  and  _83
REMARK   35  A    between atoms: _82  and  _85
REMARK   36  A    between atoms: _85  and  _86
REMARK   37  A    between atoms: _89  and  _91
REMARK   38  A    between atoms: _91  and  _92
REMARK   39  A    between atoms: _91  and  _94
REMARK   40  A    between atoms: _94  and  _95
REMARK   41  A    between atoms: _97  and  _99
REMARK   42  A    between atoms: _99  and  _100
REMARK   43  A    between atoms: _99  and  _102
REMARK   44  A    between atoms: _102  and  _103
REMARK   45  A    between atoms: _113  and  _115
REMARK   46  A    between atoms: _115  and  _116
REMARK   47  A    between atoms: _115  and  _118
REMARK   48  A    between atoms: _118  and  _119
REMARK   49  A    between atoms: _125  and  _127
REMARK   50  A    between atoms: _127  and  _128
REMARK   51  A    between atoms: _127  and  _130
REMARK   52  A    between atoms: _130  and  _131
REMARK   53  A    between atoms: _136  and  _138
REMARK   54  A    between atoms: _138  and  _139
REMARK   55  A    between atoms: _138  and  _141
REMARK   56  A    between atoms: _141  and  _142
REMARK   57  A    between atoms: _142  and  _143
REMARK   58  A    between atoms: _146  and  _148
REMARK   59  A    between atoms: _148  and  _149
REMARK   60  A    between atoms: _148  and  _151
REMARK   61  A    between atoms: _151  and  _152
REMARK   62  A    between atoms: _162  and  _164
REMARK   63  A    between atoms: _164  and  _165
REMARK   64  A    between atoms: _167  and  _169
REMARK   65  A    between atoms: _169  and  _170
REMARK   66  A    between atoms: _169  and  _172
REMARK   67  A    between atoms: _172  and  _173
REMARK   68  A    between atoms: _178  and  _180
REMARK   69  A    between atoms: _180  and  _181
REMARK   70  A    between atoms: _180  and  _183
REMARK   71  A    between atoms: _183  and  _184
REMARK   72  A    between atoms: _187  and  _189
REMARK   73  A    between atoms: _189  and  _190
REMARK   74  A    between atoms: _192  and  _194
REMARK   75  A    between atoms: _194  and  _195
REMARK   76  A    between atoms: _194  and  _197
REMARK   77  A    between atoms: _197  and  _198
REMARK   78  A    between atoms: _208  and  _210
REMARK   79  A    between atoms: _210  and  _211
REMARK   80  A    between atoms: _210  and  _213
REMARK   81  A    between atoms: _213  and  _214
REMARK   82  A    between atoms: _216  and  _218
REMARK   83  A    between atoms: _218  and  _219
REMARK   84  A    between atoms: _218  and  _221
REMARK   85  A    between atoms: _221  and  _222
REMARK   86  A    between atoms: _222  and  _223
REMARK   87  A    between atoms: _225  and  _227
REMARK   88  A    between atoms: _227  and  _228
REMARK   89  A    between atoms: _227  and  _230
REMARK   90  A    between atoms: _233  and  _235
REMARK   91  A    between atoms: _235  and  _236
REMARK   92  A    between atoms: _238  and  _240
REMARK   93  A    between atoms: _240  and  _241
REMARK   94  A    between atoms: _240  and  _243
REMARK   95  A    between atoms: _243  and  _244
REMARK   96  A    between atoms: _247  and  _249
REMARK   97  A    between atoms: _249  and  _250
REMARK   98  A    between atoms: _252  and  _254
REMARK   99  A    between atoms: _254  and  _255
REMARK  100  A    between atoms: _254  and  _257
REMARK  101  A    between atoms: _257  and  _258
REMARK  102  A    between atoms: _260  and  _262
REMARK  103  A    between atoms: _262  and  _263
REMARK  104  A    between atoms: _262  and  _265
REMARK  105  A    between atoms: _265  and  _266
REMARK  106  A    between atoms: _272  and  _274
REMARK  107  A    between atoms: _274  and  _275
REMARK  108  A    between atoms: _274  and  _277
REMARK  109  A    between atoms: _277  and  _278
REMARK  110  A    between atoms: _278  and  _279
REMARK  111  A    between atoms: _284  and  _286
REMARK  112  A    between atoms: _286  and  _287
REMARK  113  A    between atoms: _286  and  _289
REMARK  114  A    between atoms: _289  and  _290
REMARK  115  A    between atoms: _293  and  _295
REMARK  116  A    between atoms: _295  and  _296
REMARK  117  A    between atoms: _295  and  _298
REMARK  118  A    between atoms: _298  and  _299
REMARK  119  A    between atoms: _302  and  _304
REMARK  120  A    between atoms: _304  and  _305
REMARK  121  A    between atoms: _304  and  _307
REMARK  122  A    between atoms: _307  and  _308
REMARK  123  A    between atoms: _311  and  _313
REMARK  124  A    between atoms: _313  and  _314
REMARK  125  A    between atoms: _313  and  _316
REMARK  126  A    between atoms: _316  and  _317
REMARK  127  A    between atoms: _322  and  _324
REMARK  128  A    between atoms: _324  and  _325
REMARK  129  A    between atoms: _324  and  _327
REMARK  130  A    between atoms: _327  and  _328
REMARK  131  A    between atoms: _333  and  _335
REMARK  132  A    between atoms: _335  and  _336
REMARK  133  A    between atoms: _335  and  _338
REMARK  134  A    between atoms: _338  and  _339
REMARK  135  A    between atoms: _344  and  _345
REMARK  136  A    between atoms: _347  and  _349
REMARK  137  A    between atoms: _349  and  _350
REMARK  138  A    between atoms: _352  and  _354
REMARK  139  A    between atoms: _354  and  _355
REMARK  140  A    between atoms: _354  and  _357
REMARK  141  A    between atoms: _357  and  _358
REMARK  142  A    between atoms: _363  and  _364
REMARK  143  A    between atoms: _366  and  _368
REMARK  144  A    between atoms: _368  and  _369
REMARK  145  A    between atoms: _368  and  _371
REMARK  146  A    between atoms: _371  and  _372
REMARK  147  A    between atoms: _375  and  _377
REMARK  148  A    between atoms: _377  and  _378
REMARK  149  A    between atoms: _377  and  _380
REMARK  150  A    between atoms: _380  and  _381
REMARK  151  A    between atoms: _384  and  _386
REMARK  152  A    between atoms: _386  and  _387
REMARK  153  A    between atoms: _386  and  _389
REMARK  154  A    between atoms: _389  and  _390
REMARK  155  A    between atoms: _390  and  _391
REMARK  156  A    between atoms: _394  and  _396
REMARK  157  A    between atoms: _396  and  _397
REMARK  158  A    between atoms: _396  and  _399
REMARK  159  A    between atoms: _402  and  _404
REMARK  160  A    between atoms: _404  and  _405
REMARK  161  A    between atoms: _404  and  _407
REMARK  162  A    between atoms: _407  and  _408
REMARK  163  A    between atoms: _408  and  _409
REMARK  164  A    between atoms: _411  and  _413
REMARK  165  A    between atoms: _413  and  _414
REMARK  166  A    between atoms: _413  and  _416
REMARK  167  A    between atoms: _416  and  _417
REMARK  168  A    between atoms: _420  and  _422
REMARK  169  A    between atoms: _422  and  _423
REMARK  170  A    between atoms: _422  and  _425
REMARK  171  A    between atoms: _425  and  _426
REMARK  172  A    between atoms: _431  and  _432
REMARK  173  A    between atoms: _434  and  _436
REMARK  174  A    between atoms: _436  and  _437
REMARK  175  A    between atoms: _436  and  _439
REMARK  176  A    between atoms: _439  and  _440
REMARK  177  A    between atoms: _445  and  _447
REMARK  178  A    between atoms: _447  and  _448
REMARK  179  A    between atoms: _447  and  _450
REMARK  180  A    between atoms: _450  and  _451
REMARK  181  A    between atoms: _454  and  _456
REMARK  182  A    between atoms: _456  and  _457
REMARK  183  A    between atoms: _456  and  _459
REMARK  184  A    between atoms: _459  and  _460
REMARK  185  A    between atoms: _465  and  _466
REMARK  186  A    between atoms: _468  and  _470
REMARK  187  A    between atoms: _470  and  _471
REMARK  188  A    between atoms: _470  and  _473
REMARK  189  A    between atoms: _473  and  _474
REMARK  190  A    between atoms: _477  and  _479
REMARK  191  A    between atoms: _479  and  _480
REMARK  192  A    between atoms: _482  and  _484
REMARK  193  A    between atoms: _484  and  _485
REMARK  194  A    between atoms: _484  and  _487
REMARK  195  A    between atoms: _487  and  _488
REMARK  196  A    between atoms: _488  and  _489
REMARK  197  A    between atoms: _489  and  _490
REMARK  198  A    between atoms: _499  and  _501
REMARK  199  A    between atoms: _501  and  _502
REMARK  200  A    between atoms: _501  and  _504
REMARK  201  A    between atoms: _504  and  _505
REMARK  202  A    between atoms: _508  and  _510
REMARK  203  A    between atoms: _510  and  _511
REMARK  204  A    between atoms: _510  and  _513
REMARK  205  A    between atoms: _515  and  _517
REMARK  206  A    between atoms: _517  and  _518
REMARK  207  A    between atoms: _517  and  _520
REMARK  208  A    between atoms: _520  and  _521
REMARK  209  A    between atoms: _524  and  _526
REMARK  210  A    between atoms: _526  and  _527
REMARK  211  A    between atoms: _526  and  _529
REMARK  212  A    between atoms: _529  and  _530
REMARK  213  A    between atoms: _533  and  _535
REMARK  214  A    between atoms: _535  and  _536
REMARK  215  A    between atoms: _535  and  _538
REMARK  216  A    between atoms: _541  and  _543
REMARK  217  A    between atoms: _543  and  _544
REMARK  218  A    between atoms: _547  and  _549
REMARK  219  A    between atoms: _549  and  _550
REMARK  220  A    between atoms: _552  and  _554
REMARK  221  A    between atoms: _554  and  _555
REMARK  222  A    between atoms: _554  and  _557
REMARK  223  A    between atoms: _557  and  _558
REMARK  224  A    between atoms: _561  and  _563
REMARK  225  A    between atoms: _563  and  _564
REMARK  226  A    between atoms: _563  and  _566
REMARK  227  A    between atoms: _566  and  _567
REMARK  228  A    between atoms: _572  and  _573
REMARK  229  A    between atoms: _575  and  _577
REMARK  230  A    between atoms: _577  and  _578
REMARK  231  A    between atoms: _577  and  _580
REMARK  232  A    between atoms: _580  and  _581
REMARK  233  A    between atoms: _586  and  _588
REMARK  234  A    between atoms: _588  and  _589
REMARK  235  A    between atoms: _588  and  _591
REMARK  236  A    between atoms: _591  and  _592
REMARK  237  A    between atoms: _595  and  _597
REMARK  238  A    between atoms: _597  and  _598
REMARK  239  A    between atoms: _597  and  _600
REMARK  240  A    between atoms: _602  and  _604
REMARK  241  A    between atoms: _604  and  _605
REMARK  242  A    between atoms: _604  and  _607
REMARK  243  A    between atoms: _609  and  _611
REMARK  244  A    between atoms: _611  and  _612
REMARK  245  A    between atoms: _611  and  _614
REMARK  246  A    between atoms: _614  and  _615
REMARK  247  A    between atoms: _620  and  _622
REMARK  248  A    between atoms: _622  and  _623
REMARK  249  A    between atoms: _622  and  _625
REMARK  250  A    between atoms: _625  and  _626
REMARK  251  A    between atoms: _626  and  _627
REMARK  252  A    between atoms: _630  and  _632
REMARK  253  A    between atoms: _632  and  _633
REMARK  254  A    between atoms: _632  and  _635
REMARK  255  A    between atoms: _635  and  _636
REMARK  256  A    between atoms: _639  and  _641
REMARK  257  A    between atoms: _641  and  _642
REMARK  258  A    between atoms: _641  and  _644
REMARK  259  A    between atoms: _647  and  _649
REMARK  260  A    between atoms: _649  and  _650
REMARK  261  A    between atoms: _649  and  _652
REMARK  262  A    between atoms: _652  and  _653
REMARK  263  A    between atoms: _656  and  _658
REMARK  264  A    between atoms: _658  and  _659
REMARK  265  A    between atoms: _658  and  _661
REMARK  266  A    between atoms: _661  and  _662
REMARK  267  A    between atoms: _667  and  _668
REMARK  268  A    between atoms: _670  and  _672
REMARK  269  A    between atoms: _672  and  _673
REMARK  270  A    between atoms: _672  and  _675
REMARK  271  A    between atoms: _675  and  _676
REMARK  272  A    between atoms: _678  and  _680
REMARK  273  A    between atoms: _680  and  _681
REMARK  274  A    between atoms: _680  and  _683
REMARK  275  A    between atoms: _686  and  _688
REMARK  276  A    between atoms: _688  and  _689
REMARK  277  A    between atoms: _691  and  _693
REMARK  278  A    between atoms: _693  and  _694
REMARK  279  A    between atoms: _697  and  _699
REMARK  280  A    between atoms: _699  and  _700
REMARK  281  A    between atoms: _699  and  _702
REMARK  282  A    between atoms: _702  and  _703
REMARK  283  A    between atoms: _706  and  _708
REMARK  284  A    between atoms: _708  and  _709
REMARK  285  A    between atoms: _708  and  _711
REMARK  286  A    between atoms: _711  and  _712
REMARK  287  A    between atoms: _714  and  _716
REMARK  288  A    between atoms: _716  and  _717
REMARK  289  A    between atoms: _720  and  _722
REMARK  290  A    between atoms: _722  and  _723
REMARK  291  A    between atoms: _722  and  _725
REMARK  292  A    between atoms: _725  and  _726
REMARK  293  A    between atoms: _731  and  _733
REMARK  294  A    between atoms: _733  and  _734
REMARK  295  A    between atoms: _733  and  _736
REMARK  296  A    between atoms: _736  and  _737
REMARK                            x       y       z     vdW  Elec       q    Type
REMARK                         _______ _______ _______ _____ _____    ______ ____
ROOT
ATOM      1  O   HOH     1     -11.425  21.656 -75.272  0.00  0.00    +0.000 OA
ENDROOT
TORSDOF 0
REMARK  Name = ../refined-set-2016/2wva/2wva_pocket.pdb
REMARK  296 active torsions:
REMARK  status: ('A' for Active; 'I' for Inactive)
REMARK    1  A    between atoms: _1  and  _3
REMARK    2  A    between atoms: _3  and  _4
REMARK    3  A    between atoms: _3  and  _6
REMARK    4  A    between atoms: _6  and  _7
REMARK    5  A    between atoms: _10  and  _12
REMARK    6  A    between atoms: _12  and  _13
REMARK    7  A    between atoms: _12  and  _15
REMARK    8  A    between atoms: _15  and  _16
REMARK    9  A    between atoms: _22  and  _24
REMARK   10  A    between atoms: _24  and  _25
REMARK   11  A    between atoms: _24  and  _27
REMARK   12  A    between atoms: _27  and  _28
REMARK   13  A    between atoms: _31  and  _33
REMARK   14  A    between atoms: _33  and  _34
REMARK   15  A    between atoms: _33  and  _36
REMARK   16  A    between atoms: _36  and  _37
REMARK   17  A    between atoms: _42  and  _43
REMARK   18  A    between atoms: _45  and  _47
REMARK   19  A    between atoms: _47  and  _48
REMARK   20  A    between atoms: _47  and  _50
REMARK   21  A    between atoms: _50  and  _51
REMARK   22  A    between atoms: _56  and  _58
REMARK   23  A    between atoms: _58  and  _59
REMARK   24  A    between atoms: _58  and  _61
REMARK   25  A    between atoms: _61  and  _62
REMARK   26  A    between atoms: _62  and  _63
REMARK   27  A    between atoms: _66  and  _68
REMARK   28  A    between atoms: _68  and  _69
REMARK   29  A    between atoms: _68  and  _71
REMARK   30  A    between atoms: _71  and  _72
REMARK   31  A    between atoms: _75  and  _77
REMARK   32  A    between atoms: _77  and  _78
REMARK   33  A    between atoms: _80  and  _82
REMARK   34  A    between atoms: _82  and  _83
REMARK   35  A    between atoms: _82  and  _85
REMARK   36  A    between atoms: _85  and  _86
REMARK   37  A    between atoms: _89  and  _91
REMARK   38  A    between atoms: _91  and  _92
REMARK   39  A    between atoms: _91  and  _94
REMARK   40  A    between atoms: _94  and  _95
REMARK   41  A    between atoms: _97  and  _99
REMARK   42  A    between atoms: _99  and  _100
REMARK   43  A    between atoms: _99  and  _102
REMARK   44  A    between atoms: _102  and  _103
REMARK   45  A    between atoms: _113  and  _115
REMARK   46  A    between atoms: _115  and  _116
REMARK   47  A    between atoms: _115  and  _118
REMARK   48  A    between atoms: _118  and  _119
REMARK   49  A    between atoms: _125  and  _127
REMARK   50  A    between atoms: _127  and  _128
REMARK   51  A    between atoms: _127  and  _130
REMARK   52  A    between atoms: _130  and  _131
REMARK   53  A    between atoms: _136  and  _138
REMARK   54  A    between atoms: _138  and  _139
REMARK   55  A    between atoms: _138  and  _141
REMARK   56  A    between atoms: _141  and  _142
REMARK   57  A    between atoms: _142  and  _143
REMARK   58  A    between atoms: _146  and  _148
REMARK   59  A    between atoms: _148  and  _149
REMARK   60  A    between atoms: _148  and  _151
REMARK   61  A    between atoms: _151  and  _152
REMARK   62  A    between atoms: _162  and  _164
REMARK   63  A    between atoms: _164  and  _165
REMARK   64  A    between atoms: _167  and  _169
REMARK   65  A    between atoms: _169  and  _170
REMARK   66  A    between atoms: _169  and  _172
REMARK   67  A    between atoms: _172  and  _173
REMARK   68  A    between atoms: _178  and  _180
REMARK   69  A    between atoms: _180  and  _181
REMARK   70  A    between atoms: _180  and  _183
REMARK   71  A    between atoms: _183  and  _184
REMARK   72  A    between atoms: _187  and  _189
REMARK   73  A    between atoms: _189  and  _190
REMARK   74  A    between atoms: _192  and  _194
REMARK   75  A    between atoms: _194  and  _195
REMARK   76  A    between atoms: _194  and  _197
REMARK   77  A    between atoms: _197  and  _198
REMARK   78  A    between atoms: _208  and  _210
REMARK   79  A    between atoms: _210  and  _211
REMARK   80  A    between atoms: _210  and  _213
REMARK   81  A    between atoms: _213  and  _214
REMARK   82  A    between atoms: _216  and  _218
REMARK   83  A    between atoms: _218  and  _219
REMARK   84  A    between atoms: _218  and  _221
REMARK   85  A    between atoms: _221  and  _222
REMARK   86  A    between atoms: _222  and  _223
REMARK   87  A    between atoms: _225  and  _227
REMARK   88  A    between atoms: _227  and  _228
REMARK   89  A    between atoms: _227  and  _230
REMARK   90  A    between atoms: _233  and  _235
REMARK   91  A    between atoms: _235  and  _236
REMARK   92  A    between atoms: _238  and  _240
REMARK   93  A    between atoms: _240  and  _241
REMARK   94  A    between atoms: _240  and  _243
REMARK   95  A    between atoms: _243  and  _244
REMARK   96  A    between atoms: _247  and  _249
REMARK   97  A    between atoms: _249  and  _250
REMARK   98  A    between atoms: _252  and  _254
REMARK   99  A    between atoms: _254  and  _255
REMARK  100  A    between atoms: _254  and  _257
REMARK  101  A    between atoms: _257  and  _258
REMARK  102  A    between atoms: _260  and  _262
REMARK  103  A    between atoms: _262  and  _263
REMARK  104  A    between atoms: _262  and  _265
REMARK  105  A    between atoms: _265  and  _266
REMARK  106  A    between atoms: _272  and  _274
REMARK  107  A    between atoms: _274  and  _275
REMARK  108  A    between atoms: _274  and  _277
REMARK  109  A    between atoms: _277  and  _278
REMARK  110  A    between atoms: _278  and  _279
REMARK  111  A    between atoms: _284  and  _286
REMARK  112  A    between atoms: _286  and  _287
REMARK  113  A    between atoms: _286  and  _289
REMARK  114  A    between atoms: _289  and  _290
REMARK  115  A    between atoms: _293  and  _295
REMARK  116  A    between atoms: _295  and  _296
REMARK  117  A    between atoms: _295  and  _298
REMARK  118  A    between atoms: _298  and  _299
REMARK  119  A    between atoms: _302  and  _304
REMARK  120  A    between atoms: _304  and  _305
REMARK  121  A    between atoms: _304  and  _307
REMARK  122  A    between atoms: _307  and  _308
REMARK  123  A    between atoms: _311  and  _313
REMARK  124  A    between atoms: _313  and  _314
REMARK  125  A    between atoms: _313  and  _316
REMARK  126  A    between atoms: _316  and  _317
REMARK  127  A    between atoms: _322  and  _324
REMARK  128  A    between atoms: _324  and  _325
REMARK  129  A    between atoms: _324  and  _327
REMARK  130  A    between atoms: _327  and  _328
REMARK  131  A    between atoms: _333  and  _335
REMARK  132  A    between atoms: _335  and  _336
REMARK  133  A    between atoms: _335  and  _338
REMARK  134  A    between atoms: _338  and  _339
REMARK  135  A    between atoms: _344  and  _345
REMARK  136  A    between atoms: _347  and  _349
REMARK  137  A    between atoms: _349  and  _350
REMARK  138  A    between atoms: _352  and  _354
REMARK  139  A    between atoms: _354  and  _355
REMARK  140  A    between atoms: _354  and  _357
REMARK  141  A    between atoms: _357  and  _358
REMARK  142  A    between atoms: _363  and  _364
REMARK  143  A    between atoms: _366  and  _368
REMARK  144  A    between atoms: _368  and  _369
REMARK  145  A    between atoms: _368  and  _371
REMARK  146  A    between atoms: _371  and  _372
REMARK  147  A    between atoms: _375  and  _377
REMARK  148  A    between atoms: _377  and  _378
REMARK  149  A    between atoms: _377  and  _380
REMARK  150  A    between atoms: _380  and  _381
REMARK  151  A    between atoms: _384  and  _386
REMARK  152  A    between atoms: _386  and  _387
REMARK  153  A    between atoms: _386  and  _389
REMARK  154  A    between atoms: _389  and  _390
REMARK  155  A    between atoms: _390  and  _391
REMARK  156  A    between atoms: _394  and  _396
REMARK  157  A    between atoms: _396  and  _397
REMARK  158  A    between atoms: _396  and  _399
REMARK  159  A    between atoms: _402  and  _404
REMARK  160  A    between atoms: _404  and  _405
REMARK  161  A    between atoms: _404  and  _407
REMARK  162  A    between atoms: _407  and  _408
REMARK  163  A    between atoms: _408  and  _409
REMARK  164  A    between atoms: _411  and  _413
REMARK  165  A    between atoms: _413  and  _414
REMARK  166  A    between atoms: _413  and  _416
REMARK  167  A    between atoms: _416  and  _417
REMARK  168  A    between atoms: _420  and  _422
REMARK  169  A    between atoms: _422  and  _423
REMARK  170  A    between atoms: _422  and  _425
REMARK  171  A    between atoms: _425  and  _426
REMARK  172  A    between atoms: _431  and  _432
REMARK  173  A    between atoms: _434  and  _436
REMARK  174  A    between atoms: _436  and  _437
REMARK  175  A    between atoms: _436  and  _439
REMARK  176  A    between atoms: _439  and  _440
REMARK  177  A    between atoms: _445  and  _447
REMARK  178  A    between atoms: _447  and  _448
REMARK  179  A    between atoms: _447  and  _450
REMARK  180  A    between atoms: _450  and  _451
REMARK  181  A    between atoms: _454  and  _456
REMARK  182  A    between atoms: _456  and  _457
REMARK  183  A    between atoms: _456  and  _459
REMARK  184  A    between atoms: _459  and  _460
REMARK  185  A    between atoms: _465  and  _466
REMARK  186  A    between atoms: _468  and  _470
REMARK  187  A    between atoms: _470  and  _471
REMARK  188  A    between atoms: _470  and  _473
REMARK  189  A    between atoms: _473  and  _474
REMARK  190  A    between atoms: _477  and  _479
REMARK  191  A    between atoms: _479  and  _480
REMARK  192  A    between atoms: _482  and  _484
REMARK  193  A    between atoms: _484  and  _485
REMARK  194  A    between atoms: _484  and  _487
REMARK  195  A    between atoms: _487  and  _488
REMARK  196  A    between atoms: _488  and  _489
REMARK  197  A    between atoms: _489  and  _490
REMARK  198  A    between atoms: _499  and  _501
REMARK  199  A    between atoms: _501  and  _502
REMARK  200  A    between atoms: _501  and  _504
REMARK  201  A    between atoms: _504  and  _505
REMARK  202  A    between atoms: _508  and  _510
REMARK  203  A    between atoms: _510  and  _511
REMARK  204  A    between atoms: _510  and  _513
REMARK  205  A    between atoms: _515  and  _517
REMARK  206  A    between atoms: _517  and  _518
REMARK  207  A    between atoms: _517  and  _520
REMARK  208  A    between atoms: _520  and  _521
REMARK  209  A    between atoms: _524  and  _526
REMARK  210  A    between atoms: _526  and  _527
REMARK  211  A    between atoms: _526  and  _529
REMARK  212  A    between atoms: _529  and  _530
REMARK  213  A    between atoms: _533  and  _535
REMARK  214  A    between atoms: _535  and  _536
REMARK  215  A    between atoms: _535  and  _538
REMARK  216  A    between atoms: _541  and  _543
REMARK  217  A    between atoms: _543  and  _544
REMARK  218  A    between atoms: _547  and  _549
REMARK  219  A    between atoms: _549  and  _550
REMARK  220  A    between atoms: _552  and  _554
REMARK  221  A    between atoms: _554  and  _555
REMARK  222  A    between atoms: _554  and  _557
REMARK  223  A    between atoms: _557  and  _558
REMARK  224  A    between atoms: _561  and  _563
REMARK  225  A    between atoms: _563  and  _564
REMARK  226  A    between atoms: _563  and  _566
REMARK  227  A    between atoms: _566  and  _567
REMARK  228  A    between atoms: _572  and  _573
REMARK  229  A    between atoms: _575  and  _577
REMARK  230  A    between atoms: _577  and  _578
REMARK  231  A    between atoms: _577  and  _580
REMARK  232  A    between atoms: _580  and  _581
REMARK  233  A    between atoms: _586  and  _588
REMARK  234  A    between atoms: _588  and  _589
REMARK  235  A    between atoms: _588  and  _591
REMARK  236  A    between atoms: _591  and  _592
REMARK  237  A    between atoms: _595  and  _597
REMARK  238  A    between atoms: _597  and  _598
REMARK  239  A    between atoms: _597  and  _600
REMARK  240  A    between atoms: _602  and  _604
REMARK  241  A    between atoms: _604  and  _605
REMARK  242  A    between atoms: _604  and  _607
REMARK  243  A    between atoms: _609  and  _611
REMARK  244  A    between atoms: _611  and  _612
REMARK  245  A    between atoms: _611  and  _614
REMARK  246  A    between atoms: _614  and  _615
REMARK  247  A    between atoms: _620  and  _622
REMARK  248  A    between atoms: _622  and  _623
REMARK  249  A    between atoms: _622  and  _625
REMARK  250  A    between atoms: _625  and  _626
REMARK  251  A    between atoms: _626  and  _627
REMARK  252  A    between atoms: _630  and  _632
REMARK  253  A    between atoms: _632  and  _633
REMARK  254  A    between atoms: _632  and  _635
REMARK  255  A    between atoms: _635  and  _636
REMARK  256  A    between atoms: _639  and  _641
REMARK  257  A    between atoms: _641  and  _642
REMARK  258  A    between atoms: _641  and  _644
REMARK  259  A    between atoms: _647  and  _649
REMARK  260  A    between atoms: _649  and  _650
REMARK  261  A    between atoms: _649  and  _652
REMARK  262  A    between atoms: _652  and  _653
REMARK  263  A    between atoms: _656  and  _658
REMARK  264  A    between atoms: _658  and  _659
REMARK  265  A    between atoms: _658  and  _661
REMARK  266  A    between atoms: _661  and  _662
REMARK  267  A    between atoms: _667  and  _668
REMARK  268  A    between atoms: _670  and  _672
REMARK  269  A    between atoms: _672  and  _673
REMARK  270  A    between atoms: _672  and  _675
REMARK  271  A    between atoms: _675  and  _676
REMARK  272  A    between atoms: _678  and  _680
REMARK  273  A    between atoms: _680  and  _681
REMARK  274  A    between atoms: _680  and  _683
REMARK  275  A    between atoms: _686  and  _688
REMARK  276  A    between atoms: _688  and  _689
REMARK  277  A    between atoms: _691  and  _693
REMARK  278  A    between atoms: _693  and  _694
REMARK  279  A    between atoms: _697  and  _699
REMARK  280  A    between atoms: _699  and  _700
REMARK  281  A    between atoms: _699  and  _702
REMARK  282  A    between atoms: _702  and  _703
REMARK  283  A    between atoms: _706  and  _708
REMARK  284  A    between atoms: _708  and  _709
REMARK  285  A    between atoms: _708  and  _711
REMARK  286  A    between atoms: _711  and  _712
REMARK  287  A    between atoms: _714  and  _716
REMARK  288  A    between atoms: _716  and  _717
REMARK  289  A    between atoms: _720  and  _722
REMARK  290  A    between atoms: _722  and  _723
REMARK  291  A    between atoms: _722  and  _725
REMARK  292  A    between atoms: _725  and  _726
REMARK  293  A    between atoms: _731  and  _733
REMARK  294  A    between atoms: _733  and  _734
REMARK  295  A    between atoms: _733  and  _736
REMARK  296  A    between atoms: _736  and  _737
REMARK                            x       y       z     vdW  Elec       q    Type
REMARK                         _______ _______ _______ _____ _____    ______ ____
ROOT
ATOM      1  O   HOH     1     -17.280  19.049 -72.327  0.00  0.00    +0.000 OA
ENDROOT
TORSDOF 0
REMARK  Name = ../refined-set-2016/2wva/2wva_pocket.pdb
REMARK  296 active torsions:
REMARK  status: ('A' for Active; 'I' for Inactive)
REMARK    1  A    between atoms: _1  and  _3
REMARK    2  A    between atoms: _3  and  _4
REMARK    3  A    between atoms: _3  and  _6
REMARK    4  A    between atoms: _6  and  _7
REMARK    5  A    between atoms: _10  and  _12
REMARK    6  A    between atoms: _12  and  _13
REMARK    7  A    between atoms: _12  and  _15
REMARK    8  A    between atoms: _15  and  _16
REMARK    9  A    between atoms: _22  and  _24
REMARK   10  A    between atoms: _24  and  _25
REMARK   11  A    between atoms: _24  and  _27
REMARK   12  A    between atoms: _27  and  _28
REMARK   13  A    between atoms: _31  and  _33
REMARK   14  A    between atoms: _33  and  _34
REMARK   15  A    between atoms: _33  and  _36
REMARK   16  A    between atoms: _36  and  _37
REMARK   17  A    between atoms: _42  and  _43
REMARK   18  A    between atoms: _45  and  _47
REMARK   19  A    between atoms: _47  and  _48
REMARK   20  A    between atoms: _47  and  _50
REMARK   21  A    between atoms: _50  and  _51
REMARK   22  A    between atoms: _56  and  _58
REMARK   23  A    between atoms: _58  and  _59
REMARK   24  A    between atoms: _58  and  _61
REMARK   25  A    between atoms: _61  and  _62
REMARK   26  A    between atoms: _62  and  _63
REMARK   27  A    between atoms: _66  and  _68
REMARK   28  A    between atoms: _68  and  _69
REMARK   29  A    between atoms: _68  and  _71
REMARK   30  A    between atoms: _71  and  _72
REMARK   31  A    between atoms: _75  and  _77
REMARK   32  A    between atoms: _77  and  _78
REMARK   33  A    between atoms: _80  and  _82
REMARK   34  A    between atoms: _82  and  _83
REMARK   35  A    between atoms: _82  and  _85
REMARK   36  A    between atoms: _85  and  _86
REMARK   37  A    between atoms: _89  and  _91
REMARK   38  A    between atoms: _91  and  _92
REMARK   39  A    between atoms: _91  and  _94
REMARK   40  A    between atoms: _94  and  _95
REMARK   41  A    between atoms: _97  and  _99
REMARK   42  A    between atoms: _99  and  _100
REMARK   43  A    between atoms: _99  and  _102
REMARK   44  A    between atoms: _102  and  _103
REMARK   45  A    between atoms: _113  and  _115
REMARK   46  A    between atoms: _115  and  _116
REMARK   47  A    between atoms: _115  and  _118
REMARK   48  A    between atoms: _118  and  _119
REMARK   49  A    between atoms: _125  and  _127
REMARK   50  A    between atoms: _127  and  _128
REMARK   51  A    between atoms: _127  and  _130
REMARK   52  A    between atoms: _130  and  _131
REMARK   53  A    between atoms: _136  and  _138
REMARK   54  A    between atoms: _138  and  _139
REMARK   55  A    between atoms: _138  and  _141
REMARK   56  A    between atoms: _141  and  _142
REMARK   57  A    between atoms: _142  and  _143
REMARK   58  A    between atoms: _146  and  _148
REMARK   59  A    between atoms: _148  and  _149
REMARK   60  A    between atoms: _148  and  _151
REMARK   61  A    between atoms: _151  and  _152
REMARK   62  A    between atoms: _162  and  _164
REMARK   63  A    between atoms: _164  and  _165
REMARK   64  A    between atoms: _167  and  _169
REMARK   65  A    between atoms: _169  and  _170
REMARK   66  A    between atoms: _169  and  _172
REMARK   67  A    between atoms: _172  and  _173
REMARK   68  A    between atoms: _178  and  _180
REMARK   69  A    between atoms: _180  and  _181
REMARK   70  A    between atoms: _180  and  _183
REMARK   71  A    between atoms: _183  and  _184
REMARK   72  A    between atoms: _187  and  _189
REMARK   73  A    between atoms: _189  and  _190
REMARK   74  A    between atoms: _192  and  _194
REMARK   75  A    between atoms: _194  and  _195
REMARK   76  A    between atoms: _194  and  _197
REMARK   77  A    between atoms: _197  and  _198
REMARK   78  A    between atoms: _208  and  _210
REMARK   79  A    between atoms: _210  and  _211
REMARK   80  A    between atoms: _210  and  _213
REMARK   81  A    between atoms: _213  and  _214
REMARK   82  A    between atoms: _216  and  _218
REMARK   83  A    between atoms: _218  and  _219
REMARK   84  A    between atoms: _218  and  _221
REMARK   85  A    between atoms: _221  and  _222
REMARK   86  A    between atoms: _222  and  _223
REMARK   87  A    between atoms: _225  and  _227
REMARK   88  A    between atoms: _227  and  _228
REMARK   89  A    between atoms: _227  and  _230
REMARK   90  A    between atoms: _233  and  _235
REMARK   91  A    between atoms: _235  and  _236
REMARK   92  A    between atoms: _238  and  _240
REMARK   93  A    between atoms: _240  and  _241
REMARK   94  A    between atoms: _240  and  _243
REMARK   95  A    between atoms: _243  and  _244
REMARK   96  A    between atoms: _247  and  _249
REMARK   97  A    between atoms: _249  and  _250
REMARK   98  A    between atoms: _252  and  _254
REMARK   99  A    between atoms: _254  and  _255
REMARK  100  A    between atoms: _254  and  _257
REMARK  101  A    between atoms: _257  and  _258
REMARK  102  A    between atoms: _260  and  _262
REMARK  103  A    between atoms: _262  and  _263
REMARK  104  A    between atoms: _262  and  _265
REMARK  105  A    between atoms: _265  and  _266
REMARK  106  A    between atoms: _272  and  _274
REMARK  107  A    between atoms: _274  and  _275
REMARK  108  A    between atoms: _274  and  _277
REMARK  109  A    between atoms: _277  and  _278
REMARK  110  A    between atoms: _278  and  _279
REMARK  111  A    between atoms: _284  and  _286
REMARK  112  A    between atoms: _286  and  _287
REMARK  113  A    between atoms: _286  and  _289
REMARK  114  A    between atoms: _289  and  _290
REMARK  115  A    between atoms: _293  and  _295
REMARK  116  A    between atoms: _295  and  _296
REMARK  117  A    between atoms: _295  and  _298
REMARK  118  A    between atoms: _298  and  _299
REMARK  119  A    between atoms: _302  and  _304
REMARK  120  A    between atoms: _304  and  _305
REMARK  121  A    between atoms: _304  and  _307
REMARK  122  A    between atoms: _307  and  _308
REMARK  123  A    between atoms: _311  and  _313
REMARK  124  A    between atoms: _313  and  _314
REMARK  125  A    between atoms: _313  and  _316
REMARK  126  A    between atoms: _316  and  _317
REMARK  127  A    between atoms: _322  and  _324
REMARK  128  A    between atoms: _324  and  _325
REMARK  129  A    between atoms: _324  and  _327
REMARK  130  A    between atoms: _327  and  _328
REMARK  131  A    between atoms: _333  and  _335
REMARK  132  A    between atoms: _335  and  _336
REMARK  133  A    between atoms: _335  and  _338
REMARK  134  A    between atoms: _338  and  _339
REMARK  135  A    between atoms: _344  and  _345
REMARK  136  A    between atoms: _347  and  _349
REMARK  137  A    between atoms: _349  and  _350
REMARK  138  A    between atoms: _352  and  _354
REMARK  139  A    between atoms: _354  and  _355
REMARK  140  A    between atoms: _354  and  _357
REMARK  141  A    between atoms: _357  and  _358
REMARK  142  A    between atoms: _363  and  _364
REMARK  143  A    between atoms: _366  and  _368
REMARK  144  A    between atoms: _368  and  _369
REMARK  145  A    between atoms: _368  and  _371
REMARK  146  A    between atoms: _371  and  _372
REMARK  147  A    between atoms: _375  and  _377
REMARK  148  A    between atoms: _377  and  _378
REMARK  149  A    between atoms: _377  and  _380
REMARK  150  A    between atoms: _380  and  _381
REMARK  151  A    between atoms: _384  and  _386
REMARK  152  A    between atoms: _386  and  _387
REMARK  153  A    between atoms: _386  and  _389
REMARK  154  A    between atoms: _389  and  _390
REMARK  155  A    between atoms: _390  and  _391
REMARK  156  A    between atoms: _394  and  _396
REMARK  157  A    between atoms: _396  and  _397
REMARK  158  A    between atoms: _396  and  _399
REMARK  159  A    between atoms: _402  and  _404
REMARK  160  A    between atoms: _404  and  _405
REMARK  161  A    between atoms: _404  and  _407
REMARK  162  A    between atoms: _407  and  _408
REMARK  163  A    between atoms: _408  and  _409
REMARK  164  A    between atoms: _411  and  _413
REMARK  165  A    between atoms: _413  and  _414
REMARK  166  A    between atoms: _413  and  _416
REMARK  167  A    between atoms: _416  and  _417
REMARK  168  A    between atoms: _420  and  _422
REMARK  169  A    between atoms: _422  and  _423
REMARK  170  A    between atoms: _422  and  _425
REMARK  171  A    between atoms: _425  and  _426
REMARK  172  A    between atoms: _431  and  _432
REMARK  173  A    between atoms: _434  and  _436
REMARK  174  A    between atoms: _436  and  _437
REMARK  175  A    between atoms: _436  and  _439
REMARK  176  A    between atoms: _439  and  _440
REMARK  177  A    between atoms: _445  and  _447
REMARK  178  A    between atoms: _447  and  _448
REMARK  179  A    between atoms: _447  and  _450
REMARK  180  A    between atoms: _450  and  _451
REMARK  181  A    between atoms: _454  and  _456
REMARK  182  A    between atoms: _456  and  _457
REMARK  183  A    between atoms: _456  and  _459
REMARK  184  A    between atoms: _459  and  _460
REMARK  185  A    between atoms: _465  and  _466
REMARK  186  A    between atoms: _468  and  _470
REMARK  187  A    between atoms: _470  and  _471
REMARK  188  A    between atoms: _470  and  _473
REMARK  189  A    between atoms: _473  and  _474
REMARK  190  A    between atoms: _477  and  _479
REMARK  191  A    between atoms: _479  and  _480
REMARK  192  A    between atoms: _482  and  _484
REMARK  193  A    between atoms: _484  and  _485
REMARK  194  A    between atoms: _484  and  _487
REMARK  195  A    between atoms: _487  and  _488
REMARK  196  A    between atoms: _488  and  _489
REMARK  197  A    between atoms: _489  and  _490
REMARK  198  A    between atoms: _499  and  _501
REMARK  199  A    between atoms: _501  and  _502
REMARK  200  A    between atoms: _501  and  _504
REMARK  201  A    between atoms: _504  and  _505
REMARK  202  A    between atoms: _508  and  _510
REMARK  203  A    between atoms: _510  and  _511
REMARK  204  A    between atoms: _510  and  _513
REMARK  205  A    between atoms: _515  and  _517
REMARK  206  A    between atoms: _517  and  _518
REMARK  207  A    between atoms: _517  and  _520
REMARK  208  A    between atoms: _520  and  _521
REMARK  209  A    between atoms: _524  and  _526
REMARK  210  A    between atoms: _526  and  _527
REMARK  211  A    between atoms: _526  and  _529
REMARK  212  A    between atoms: _529  and  _530
REMARK  213  A    between atoms: _533  and  _535
REMARK  214  A    between atoms: _535  and  _536
REMARK  215  A    between atoms: _535  and  _538
REMARK  216  A    between atoms: _541  and  _543
REMARK  217  A    between atoms: _543  and  _544
REMARK  218  A    between atoms: _547  and  _549
REMARK  219  A    between atoms: _549  and  _550
REMARK  220  A    between atoms: _552  and  _554
REMARK  221  A    between atoms: _554  and  _555
REMARK  222  A    between atoms: _554  and  _557
REMARK  223  A    between atoms: _557  and  _558
REMARK  224  A    between atoms: _561  and  _563
REMARK  225  A    between atoms: _563  and  _564
REMARK  226  A    between atoms: _563  and  _566
REMARK  227  A    between atoms: _566  and  _567
REMARK  228  A    between atoms: _572  and  _573
REMARK  229  A    between atoms: _575  and  _577
REMARK  230  A    between atoms: _577  and  _578
REMARK  231  A    between atoms: _577  and  _580
REMARK  232  A    between atoms: _580  and  _581
REMARK  233  A    between atoms: _586  and  _588
REMARK  234  A    between atoms: _588  and  _589
REMARK  235  A    between atoms: _588  and  _591
REMARK  236  A    between atoms: _591  and  _592
REMARK  237  A    between atoms: _595  and  _597
REMARK  238  A    between atoms: _597  and  _598
REMARK  239  A    between atoms: _597  and  _600
REMARK  240  A    between atoms: _602  and  _604
REMARK  241  A    between atoms: _604  and  _605
REMARK  242  A    between atoms: _604  and  _607
REMARK  243  A    between atoms: _609  and  _611
REMARK  244  A    between atoms: _611  and  _612
REMARK  245  A    between atoms: _611  and  _614
REMARK  246  A    between atoms: _614  and  _615
REMARK  247  A    between atoms: _620  and  _622
REMARK  248  A    between atoms: _622  and  _623
REMARK  249  A    between atoms: _622  and  _625
REMARK  250  A    between atoms: _625  and  _626
REMARK  251  A    between atoms: _626  and  _627
REMARK  252  A    between atoms: _630  and  _632
REMARK  253  A    between atoms: _632  and  _633
REMARK  254  A    between atoms: _632  and  _635
REMARK  255  A    between atoms: _635  and  _636
REMARK  256  A    between atoms: _639  and  _641
REMARK  257  A    between atoms: _641  and  _642
REMARK  258  A    between atoms: _641  and  _644
REMARK  259  A    between atoms: _647  and  _649
REMARK  260  A    between atoms: _649  and  _650
REMARK  261  A    between atoms: _649  and  _652
REMARK  262  A    between atoms: _652  and  _653
REMARK  263  A    between atoms: _656  and  _658
REMARK  264  A    between atoms: _658  and  _659
REMARK  265  A    between atoms: _658  and  _661
REMARK  266  A    between atoms: _661  and  _662
REMARK  267  A    between atoms: _667  and  _668
REMARK  268  A    between atoms: _670  and  _672
REMARK  269  A    between atoms: _672  and  _673
REMARK  270  A    between atoms: _672  and  _675
REMARK  271  A    between atoms: _675  and  _676
REMARK  272  A    between atoms: _678  and  _680
REMARK  273  A    between atoms: _680  and  _681
REMARK  274  A    between atoms: _680  and  _683
REMARK  275  A    between atoms: _686  and  _688
REMARK  276  A    between atoms: _688  and  _689
REMARK  277  A    between atoms: _691  and  _693
REMARK  278  A    between atoms: _693  and  _694
REMARK  279  A    between atoms: _697  and  _699
REMARK  280  A    between atoms: _699  and  _700
REMARK  281  A    between atoms: _699  and  _702
REMARK  282  A    between atoms: _702  and  _703
REMARK  283  A    between atoms: _706  and  _708
REMARK  284  A    between atoms: _708  and  _709
REMARK  285  A    between atoms: _708  and  _711
REMARK  286  A    between atoms: _711  and  _712
REMARK  287  A    between atoms: _714  and  _716
REMARK  288  A    between atoms: _716  and  _717
REMARK  289  A    between atoms: _720  and  _722
REMARK  290  A    between atoms: _722  and  _723
REMARK  291  A    between atoms: _722  and  _725
REMARK  292  A    between atoms: _725  and  _726
REMARK  293  A    between atoms: _731  and  _733
REMARK  294  A    between atoms: _733  and  _734
REMARK  295  A    between atoms: _733  and  _736
REMARK  296  A    between atoms: _736  and  _737
REMARK                            x       y       z     vdW  Elec       q    Type
REMARK                         _______ _______ _______ _____ _____    ______ ____
ROOT
ATOM      1  O   HOH     1      -9.175  21.921 -73.600  0.00  0.00    +0.000 OA
ENDROOT
TORSDOF 0
REMARK  Name = ../refined-set-2016/2wva/2wva_pocket.pdb
REMARK  296 active torsions:
REMARK  status: ('A' for Active; 'I' for Inactive)
REMARK    1  A    between atoms: _1  and  _3
REMARK    2  A    between atoms: _3  and  _4
REMARK    3  A    between atoms: _3  and  _6
REMARK    4  A    between atoms: _6  and  _7
REMARK    5  A    between atoms: _10  and  _12
REMARK    6  A    between atoms: _12  and  _13
REMARK    7  A    between atoms: _12  and  _15
REMARK    8  A    between atoms: _15  and  _16
REMARK    9  A    between atoms: _22  and  _24
REMARK   10  A    between atoms: _24  and  _25
REMARK   11  A    between atoms: _24  and  _27
REMARK   12  A    between atoms: _27  and  _28
REMARK   13  A    between atoms: _31  and  _33
REMARK   14  A    between atoms: _33  and  _34
REMARK   15  A    between atoms: _33  and  _36
REMARK   16  A    between atoms: _36  and  _37
REMARK   17  A    between atoms: _42  and  _43
REMARK   18  A    between atoms: _45  and  _47
REMARK   19  A    between atoms: _47  and  _48
REMARK   20  A    between atoms: _47  and  _50
REMARK   21  A    between atoms: _50  and  _51
REMARK   22  A    between atoms: _56  and  _58
REMARK   23  A    between atoms: _58  and  _59
REMARK   24  A    between atoms: _58  and  _61
REMARK   25  A    between atoms: _61  and  _62
REMARK   26  A    between atoms: _62  and  _63
REMARK   27  A    between atoms: _66  and  _68
REMARK   28  A    between atoms: _68  and  _69
REMARK   29  A    between atoms: _68  and  _71
REMARK   30  A    between atoms: _71  and  _72
REMARK   31  A    between atoms: _75  and  _77
REMARK   32  A    between atoms: _77  and  _78
REMARK   33  A    between atoms: _80  and  _82
REMARK   34  A    between atoms: _82  and  _83
REMARK   35  A    between atoms: _82  and  _85
REMARK   36  A    between atoms: _85  and  _86
REMARK   37  A    between atoms: _89  and  _91
REMARK   38  A    between atoms: _91  and  _92
REMARK   39  A    between atoms: _91  and  _94
REMARK   40  A    between atoms: _94  and  _95
REMARK   41  A    between atoms: _97  and  _99
REMARK   42  A    between atoms: _99  and  _100
REMARK   43  A    between atoms: _99  and  _102
REMARK   44  A    between atoms: _102  and  _103
REMARK   45  A    between atoms: _113  and  _115
REMARK   46  A    between atoms: _115  and  _116
REMARK   47  A    between atoms: _115  and  _118
REMARK   48  A    between atoms: _118  and  _119
REMARK   49  A    between atoms: _125  and  _127
REMARK   50  A    between atoms: _127  and  _128
REMARK   51  A    between atoms: _127  and  _130
REMARK   52  A    between atoms: _130  and  _131
REMARK   53  A    between atoms: _136  and  _138
REMARK   54  A    between atoms: _138  and  _139
REMARK   55  A    between atoms: _138  and  _141
REMARK   56  A    between atoms: _141  and  _142
REMARK   57  A    between atoms: _142  and  _143
REMARK   58  A    between atoms: _146  and  _148
REMARK   59  A    between atoms: _148  and  _149
REMARK   60  A    between atoms: _148  and  _151
REMARK   61  A    between atoms: _151  and  _152
REMARK   62  A    between atoms: _162  and  _164
REMARK   63  A    between atoms: _164  and  _165
REMARK   64  A    between atoms: _167  and  _169
REMARK   65  A    between atoms: _169  and  _170
REMARK   66  A    between atoms: _169  and  _172
REMARK   67  A    between atoms: _172  and  _173
REMARK   68  A    between atoms: _178  and  _180
REMARK   69  A    between atoms: _180  and  _181
REMARK   70  A    between atoms: _180  and  _183
REMARK   71  A    between atoms: _183  and  _184
REMARK   72  A    between atoms: _187  and  _189
REMARK   73  A    between atoms: _189  and  _190
REMARK   74  A    between atoms: _192  and  _194
REMARK   75  A    between atoms: _194  and  _195
REMARK   76  A    between atoms: _194  and  _197
REMARK   77  A    between atoms: _197  and  _198
REMARK   78  A    between atoms: _208  and  _210
REMARK   79  A    between atoms: _210  and  _211
REMARK   80  A    between atoms: _210  and  _213
REMARK   81  A    between atoms: _213  and  _214
REMARK   82  A    between atoms: _216  and  _218
REMARK   83  A    between atoms: _218  and  _219
REMARK   84  A    between atoms: _218  and  _221
REMARK   85  A    between atoms: _221  and  _222
REMARK   86  A    between atoms: _222  and  _223
REMARK   87  A    between atoms: _225  and  _227
REMARK   88  A    between atoms: _227  and  _228
REMARK   89  A    between atoms: _227  and  _230
REMARK   90  A    between atoms: _233  and  _235
REMARK   91  A    between atoms: _235  and  _236
REMARK   92  A    between atoms: _238  and  _240
REMARK   93  A    between atoms: _240  and  _241
REMARK   94  A    between atoms: _240  and  _243
REMARK   95  A    between atoms: _243  and  _244
REMARK   96  A    between atoms: _247  and  _249
REMARK   97  A    between atoms: _249  and  _250
REMARK   98  A    between atoms: _252  and  _254
REMARK   99  A    between atoms: _254  and  _255
REMARK  100  A    between atoms: _254  and  _257
REMARK  101  A    between atoms: _257  and  _258
REMARK  102  A    between atoms: _260  and  _262
REMARK  103  A    between atoms: _262  and  _263
REMARK  104  A    between atoms: _262  and  _265
REMARK  105  A    between atoms: _265  and  _266
REMARK  106  A    between atoms: _272  and  _274
REMARK  107  A    between atoms: _274  and  _275
REMARK  108  A    between atoms: _274  and  _277
REMARK  109  A    between atoms: _277  and  _278
REMARK  110  A    between atoms: _278  and  _279
REMARK  111  A    between atoms: _284  and  _286
REMARK  112  A    between atoms: _286  and  _287
REMARK  113  A    between atoms: _286  and  _289
REMARK  114  A    between atoms: _289  and  _290
REMARK  115  A    between atoms: _293  and  _295
REMARK  116  A    between atoms: _295  and  _296
REMARK  117  A    between atoms: _295  and  _298
REMARK  118  A    between atoms: _298  and  _299
REMARK  119  A    between atoms: _302  and  _304
REMARK  120  A    between atoms: _304  and  _305
REMARK  121  A    between atoms: _304  and  _307
REMARK  122  A    between atoms: _307  and  _308
REMARK  123  A    between atoms: _311  and  _313
REMARK  124  A    between atoms: _313  and  _314
REMARK  125  A    between atoms: _313  and  _316
REMARK  126  A    between atoms: _316  and  _317
REMARK  127  A    between atoms: _322  and  _324
REMARK  128  A    between atoms: _324  and  _325
REMARK  129  A    between atoms: _324  and  _327
REMARK  130  A    between atoms: _327  and  _328
REMARK  131  A    between atoms: _333  and  _335
REMARK  132  A    between atoms: _335  and  _336
REMARK  133  A    between atoms: _335  and  _338
REMARK  134  A    between atoms: _338  and  _339
REMARK  135  A    between atoms: _344  and  _345
REMARK  136  A    between atoms: _347  and  _349
REMARK  137  A    between atoms: _349  and  _350
REMARK  138  A    between atoms: _352  and  _354
REMARK  139  A    between atoms: _354  and  _355
REMARK  140  A    between atoms: _354  and  _357
REMARK  141  A    between atoms: _357  and  _358
REMARK  142  A    between atoms: _363  and  _364
REMARK  143  A    between atoms: _366  and  _368
REMARK  144  A    between atoms: _368  and  _369
REMARK  145  A    between atoms: _368  and  _371
REMARK  146  A    between atoms: _371  and  _372
REMARK  147  A    between atoms: _375  and  _377
REMARK  148  A    between atoms: _377  and  _378
REMARK  149  A    between atoms: _377  and  _380
REMARK  150  A    between atoms: _380  and  _381
REMARK  151  A    between atoms: _384  and  _386
REMARK  152  A    between atoms: _386  and  _387
REMARK  153  A    between atoms: _386  and  _389
REMARK  154  A    between atoms: _389  and  _390
REMARK  155  A    between atoms: _390  and  _391
REMARK  156  A    between atoms: _394  and  _396
REMARK  157  A    between atoms: _396  and  _397
REMARK  158  A    between atoms: _396  and  _399
REMARK  159  A    between atoms: _402  and  _404
REMARK  160  A    between atoms: _404  and  _405
REMARK  161  A    between atoms: _404  and  _407
REMARK  162  A    between atoms: _407  and  _408
REMARK  163  A    between atoms: _408  and  _409
REMARK  164  A    between atoms: _411  and  _413
REMARK  165  A    between atoms: _413  and  _414
REMARK  166  A    between atoms: _413  and  _416
REMARK  167  A    between atoms: _416  and  _417
REMARK  168  A    between atoms: _420  and  _422
REMARK  169  A    between atoms: _422  and  _423
REMARK  170  A    between atoms: _422  and  _425
REMARK  171  A    between atoms: _425  and  _426
REMARK  172  A    between atoms: _431  and  _432
REMARK  173  A    between atoms: _434  and  _436
REMARK  174  A    between atoms: _436  and  _437
REMARK  175  A    between atoms: _436  and  _439
REMARK  176  A    between atoms: _439  and  _440
REMARK  177  A    between atoms: _445  and  _447
REMARK  178  A    between atoms: _447  and  _448
REMARK  179  A    between atoms: _447  and  _450
REMARK  180  A    between atoms: _450  and  _451
REMARK  181  A    between atoms: _454  and  _456
REMARK  182  A    between atoms: _456  and  _457
REMARK  183  A    between atoms: _456  and  _459
REMARK  184  A    between atoms: _459  and  _460
REMARK  185  A    between atoms: _465  and  _466
REMARK  186  A    between atoms: _468  and  _470
REMARK  187  A    between atoms: _470  and  _471
REMARK  188  A    between atoms: _470  and  _473
REMARK  189  A    between atoms: _473  and  _474
REMARK  190  A    between atoms: _477  and  _479
REMARK  191  A    between atoms: _479  and  _480
REMARK  192  A    between atoms: _482  and  _484
REMARK  193  A    between atoms: _484  and  _485
REMARK  194  A    between atoms: _484  and  _487
REMARK  195  A    between atoms: _487  and  _488
REMARK  196  A    between atoms: _488  and  _489
REMARK  197  A    between atoms: _489  and  _490
REMARK  198  A    between atoms: _499  and  _501
REMARK  199  A    between atoms: _501  and  _502
REMARK  200  A    between atoms: _501  and  _504
REMARK  201  A    between atoms: _504  and  _505
REMARK  202  A    between atoms: _508  and  _510
REMARK  203  A    between atoms: _510  and  _511
REMARK  204  A    between atoms: _510  and  _513
REMARK  205  A    between atoms: _515  and  _517
REMARK  206  A    between atoms: _517  and  _518
REMARK  207  A    between atoms: _517  and  _520
REMARK  208  A    between atoms: _520  and  _521
REMARK  209  A    between atoms: _524  and  _526
REMARK  210  A    between atoms: _526  and  _527
REMARK  211  A    between atoms: _526  and  _529
REMARK  212  A    between atoms: _529  and  _530
REMARK  213  A    between atoms: _533  and  _535
REMARK  214  A    between atoms: _535  and  _536
REMARK  215  A    between atoms: _535  and  _538
REMARK  216  A    between atoms: _541  and  _543
REMARK  217  A    between atoms: _543  and  _544
REMARK  218  A    between atoms: _547  and  _549
REMARK  219  A    between atoms: _549  and  _550
REMARK  220  A    between atoms: _552  and  _554
REMARK  221  A    between atoms: _554  and  _555
REMARK  222  A    between atoms: _554  and  _557
REMARK  223  A    between atoms: _557  and  _558
REMARK  224  A    between atoms: _561  and  _563
REMARK  225  A    between atoms: _563  and  _564
REMARK  226  A    between atoms: _563  and  _566
REMARK  227  A    between atoms: _566  and  _567
REMARK  228  A    between atoms: _572  and  _573
REMARK  229  A    between atoms: _575  and  _577
REMARK  230  A    between atoms: _577  and  _578
REMARK  231  A    between atoms: _577  and  _580
REMARK  232  A    between atoms: _580  and  _581
REMARK  233  A    between atoms: _586  and  _588
REMARK  234  A    between atoms: _588  and  _589
REMARK  235  A    between atoms: _588  and  _591
REMARK  236  A    between atoms: _591  and  _592
REMARK  237  A    between atoms: _595  and  _597
REMARK  238  A    between atoms: _597  and  _598
REMARK  239  A    between atoms: _597  and  _600
REMARK  240  A    between atoms: _602  and  _604
REMARK  241  A    between atoms: _604  and  _605
REMARK  242  A    between atoms: _604  and  _607
REMARK  243  A    between atoms: _609  and  _611
REMARK  244  A    between atoms: _611  and  _612
REMARK  245  A    between atoms: _611  and  _614
REMARK  246  A    between atoms: _614  and  _615
REMARK  247  A    between atoms: _620  and  _622
REMARK  248  A    between atoms: _622  and  _623
REMARK  249  A    between atoms: _622  and  _625
REMARK  250  A    between atoms: _625  and  _626
REMARK  251  A    between atoms: _626  and  _627
REMARK  252  A    between atoms: _630  and  _632
REMARK  253  A    between atoms: _632  and  _633
REMARK  254  A    between atoms: _632  and  _635
REMARK  255  A    between atoms: _635  and  _636
REMARK  256  A    between atoms: _639  and  _641
REMARK  257  A    between atoms: _641  and  _642
REMARK  258  A    between atoms: _641  and  _644
REMARK  259  A    between atoms: _647  and  _649
REMARK  260  A    between atoms: _649  and  _650
REMARK  261  A    between atoms: _649  and  _652
REMARK  262  A    between atoms: _652  and  _653
REMARK  263  A    between atoms: _656  and  _658
REMARK  264  A    between atoms: _658  and  _659
REMARK  265  A    between atoms: _658  and  _661
REMARK  266  A    between atoms: _661  and  _662
REMARK  267  A    between atoms: _667  and  _668
REMARK  268  A    between atoms: _670  and  _672
REMARK  269  A    between atoms: _672  and  _673
REMARK  270  A    between atoms: _672  and  _675
REMARK  271  A    between atoms: _675  and  _676
REMARK  272  A    between atoms: _678  and  _680
REMARK  273  A    between atoms: _680  and  _681
REMARK  274  A    between atoms: _680  and  _683
REMARK  275  A    between atoms: _686  and  _688
REMARK  276  A    between atoms: _688  and  _689
REMARK  277  A    between atoms: _691  and  _693
REMARK  278  A    between atoms: _693  and  _694
REMARK  279  A    between atoms: _697  and  _699
REMARK  280  A    between atoms: _699  and  _700
REMARK  281  A    between atoms: _699  and  _702
REMARK  282  A    between atoms: _702  and  _703
REMARK  283  A    between atoms: _706  and  _708
REMARK  284  A    between atoms: _708  and  _709
REMARK  285  A    between atoms: _708  and  _711
REMARK  286  A    between atoms: _711  and  _712
REMARK  287  A    between atoms: _714  and  _716
REMARK  288  A    between atoms: _716  and  _717
REMARK  289  A    between atoms: _720  and  _722
REMARK  290  A    between atoms: _722  and  _723
REMARK  291  A    between atoms: _722  and  _725
REMARK  292  A    between atoms: _725  and  _726
REMARK  293  A    between atoms: _731  and  _733
REMARK  294  A    between atoms: _733  and  _734
REMARK  295  A    between atoms: _733  and  _736
REMARK  296  A    between atoms: _736  and  _737
REMARK                            x       y       z     vdW  Elec       q    Type
REMARK                         _______ _______ _______ _____ _____    ______ ____
ROOT
ATOM      1  O   HOH     1     -21.912  18.995 -76.840  0.00  0.00    +0.000 OA
ENDROOT
TORSDOF 0
