REMARK  Name = ../refined-set-2016/3bwj/3bwj_pocket.pdb
REMARK  286 active torsions:
REMARK  status: ('A' for Active; 'I' for Inactive)
REMARK    1  A    between atoms: _1  and  _3
REMARK    2  A    between atoms: _3  and  _4
REMARK    3  A    between atoms: _3  and  _6
REMARK    4  A    between atoms: _6  and  _7
REMARK    5  A    between atoms: _10  and  _12
REMARK    6  A    between atoms: _12  and  _13
REMARK    7  A    between atoms: _12  and  _15
REMARK    8  A    between atoms: _15  and  _16
REMARK    9  A    between atoms: _19  and  _21
REMARK   10  A    between atoms: _21  and  _22
REMARK   11  A    between atoms: _24  and  _26
REMARK   12  A    between atoms: _26  and  _27
REMARK   13  A    between atoms: _26  and  _29
REMARK   14  A    between atoms: _29  and  _30
REMARK   15  A    between atoms: _33  and  _35
REMARK   16  A    between atoms: _35  and  _36
REMARK   17  A    between atoms: _38  and  _40
REMARK   18  A    between atoms: _40  and  _41
REMARK   19  A    between atoms: _40  and  _43
REMARK   20  A    between atoms: _43  and  _44
REMARK   21  A    between atoms: _46  and  _48
REMARK   22  A    between atoms: _48  and  _49
REMARK   23  A    between atoms: _48  and  _51
REMARK   24  A    between atoms: _51  and  _52
REMARK   25  A    between atoms: _58  and  _60
REMARK   26  A    between atoms: _60  and  _61
REMARK   27  A    between atoms: _63  and  _65
REMARK   28  A    between atoms: _65  and  _66
REMARK   29  A    between atoms: _65  and  _68
REMARK   30  A    between atoms: _68  and  _69
REMARK   31  A    between atoms: _69  and  _70
REMARK   32  A    between atoms: _70  and  _71
REMARK   33  A    between atoms: _80  and  _82
REMARK   34  A    between atoms: _82  and  _83
REMARK   35  A    between atoms: _82  and  _85
REMARK   36  A    between atoms: _88  and  _90
REMARK   37  A    between atoms: _90  and  _91
REMARK   38  A    between atoms: _90  and  _93
REMARK   39  A    between atoms: _93  and  _94
REMARK   40  A    between atoms: _94  and  _95
REMARK   41  A    between atoms: _97  and  _99
REMARK   42  A    between atoms: _99  and  _100
REMARK   43  A    between atoms: _99  and  _102
REMARK   44  A    between atoms: _102  and  _103
REMARK   45  A    between atoms: _106  and  _108
REMARK   46  A    between atoms: _108  and  _109
REMARK   47  A    between atoms: _108  and  _111
REMARK   48  A    between atoms: _111  and  _112
REMARK   49  A    between atoms: _117  and  _118
REMARK   50  A    between atoms: _120  and  _122
REMARK   51  A    between atoms: _122  and  _123
REMARK   52  A    between atoms: _126  and  _128
REMARK   53  A    between atoms: _128  and  _129
REMARK   54  A    between atoms: _128  and  _131
REMARK   55  A    between atoms: _131  and  _132
REMARK   56  A    between atoms: _132  and  _133
REMARK   57  A    between atoms: _135  and  _137
REMARK   58  A    between atoms: _137  and  _138
REMARK   59  A    between atoms: _137  and  _140
REMARK   60  A    between atoms: _140  and  _141
REMARK   61  A    between atoms: _141  and  _142
REMARK   62  A    between atoms: _142  and  _143
REMARK   63  A    between atoms: _143  and  _144
REMARK   64  A    between atoms: _148  and  _150
REMARK   65  A    between atoms: _150  and  _151
REMARK   66  A    between atoms: _150  and  _153
REMARK   67  A    between atoms: _153  and  _154
REMARK   68  A    between atoms: _157  and  _159
REMARK   69  A    between atoms: _159  and  _160
REMARK   70  A    between atoms: _159  and  _162
REMARK   71  A    between atoms: _162  and  _163
REMARK   72  A    between atoms: _166  and  _168
REMARK   73  A    between atoms: _168  and  _169
REMARK   74  A    between atoms: _168  and  _171
REMARK   75  A    between atoms: _171  and  _172
REMARK   76  A    between atoms: _175  and  _177
REMARK   77  A    between atoms: _177  and  _178
REMARK   78  A    between atoms: _177  and  _180
REMARK   79  A    between atoms: _180  and  _181
REMARK   80  A    between atoms: _181  and  _182
REMARK   81  A    between atoms: _182  and  _183
REMARK   82  A    between atoms: _183  and  _184
REMARK   83  A    between atoms: _188  and  _190
REMARK   84  A    between atoms: _190  and  _191
REMARK   85  A    between atoms: _190  and  _193
REMARK   86  A    between atoms: _196  and  _198
REMARK   87  A    between atoms: _198  and  _199
REMARK   88  A    between atoms: _198  and  _201
REMARK   89  A    between atoms: _201  and  _202
REMARK   90  A    between atoms: _205  and  _207
REMARK   91  A    between atoms: _207  and  _208
REMARK   92  A    between atoms: _207  and  _210
REMARK   93  A    between atoms: _210  and  _211
REMARK   94  A    between atoms: _211  and  _212
REMARK   95  A    between atoms: _217  and  _219
REMARK   96  A    between atoms: _219  and  _220
REMARK   97  A    between atoms: _219  and  _222
REMARK   98  A    between atoms: _222  and  _223
REMARK   99  A    between atoms: _226  and  _228
REMARK  100  A    between atoms: _228  and  _229
REMARK  101  A    between atoms: _228  and  _231
REMARK  102  A    between atoms: _231  and  _232
REMARK  103  A    between atoms: _232  and  _233
REMARK  104  A    between atoms: _236  and  _238
REMARK  105  A    between atoms: _238  and  _239
REMARK  106  A    between atoms: _238  and  _241
REMARK  107  A    between atoms: _244  and  _246
REMARK  108  A    between atoms: _246  and  _247
REMARK  109  A    between atoms: _246  and  _249
REMARK  110  A    between atoms: _249  and  _250
REMARK  111  A    between atoms: _250  and  _251
REMARK  112  A    between atoms: _251  and  _252
REMARK  113  A    between atoms: _252  and  _253
REMARK  114  A    between atoms: _257  and  _259
REMARK  115  A    between atoms: _259  and  _260
REMARK  116  A    between atoms: _259  and  _262
REMARK  117  A    between atoms: _262  and  _263
REMARK  118  A    between atoms: _266  and  _268
REMARK  119  A    between atoms: _268  and  _269
REMARK  120  A    between atoms: _268  and  _271
REMARK  121  A    between atoms: _271  and  _272
REMARK  122  A    between atoms: _272  and  _273
REMARK  123  A    between atoms: _276  and  _278
REMARK  124  A    between atoms: _278  and  _279
REMARK  125  A    between atoms: _278  and  _281
REMARK  126  A    between atoms: _281  and  _282
REMARK  127  A    between atoms: _282  and  _283
REMARK  128  A    between atoms: _285  and  _287
REMARK  129  A    between atoms: _287  and  _288
REMARK  130  A    between atoms: _287  and  _290
REMARK  131  A    between atoms: _293  and  _295
REMARK  132  A    between atoms: _295  and  _296
REMARK  133  A    between atoms: _295  and  _298
REMARK  134  A    between atoms: _298  and  _299
REMARK  135  A    between atoms: _299  and  _300
REMARK  136  A    between atoms: _302  and  _304
REMARK  137  A    between atoms: _304  and  _305
REMARK  138  A    between atoms: _304  and  _307
REMARK  139  A    between atoms: _307  and  _308
REMARK  140  A    between atoms: _308  and  _309
REMARK  141  A    between atoms: _312  and  _314
REMARK  142  A    between atoms: _314  and  _315
REMARK  143  A    between atoms: _314  and  _317
REMARK  144  A    between atoms: _317  and  _318
REMARK  145  A    between atoms: _323  and  _324
REMARK  146  A    between atoms: _326  and  _328
REMARK  147  A    between atoms: _328  and  _329
REMARK  148  A    between atoms: _328  and  _331
REMARK  149  A    between atoms: _335  and  _336
REMARK  150  A    between atoms: _341  and  _343
REMARK  151  A    between atoms: _343  and  _344
REMARK  152  A    between atoms: _346  and  _348
REMARK  153  A    between atoms: _348  and  _349
REMARK  154  A    between atoms: _351  and  _353
REMARK  155  A    between atoms: _353  and  _354
REMARK  156  A    between atoms: _353  and  _356
REMARK  157  A    between atoms: _356  and  _357
REMARK  158  A    between atoms: _357  and  _358
REMARK  159  A    between atoms: _361  and  _363
REMARK  160  A    between atoms: _363  and  _364
REMARK  161  A    between atoms: _363  and  _366
REMARK  162  A    between atoms: _366  and  _367
REMARK  163  A    between atoms: _367  and  _368
REMARK  164  A    between atoms: _370  and  _372
REMARK  165  A    between atoms: _372  and  _373
REMARK  166  A    between atoms: _372  and  _375
REMARK  167  A    between atoms: _375  and  _376
REMARK  168  A    between atoms: _382  and  _384
REMARK  169  A    between atoms: _384  and  _385
REMARK  170  A    between atoms: _384  and  _387
REMARK  171  A    between atoms: _387  and  _388
REMARK  172  A    between atoms: _390  and  _392
REMARK  173  A    between atoms: _392  and  _393
REMARK  174  A    between atoms: _392  and  _395
REMARK  175  A    between atoms: _395  and  _396
REMARK  176  A    between atoms: _401  and  _402
REMARK  177  A    between atoms: _404  and  _406
REMARK  178  A    between atoms: _406  and  _407
REMARK  179  A    between atoms: _406  and  _409
REMARK  180  A    between atoms: _409  and  _410
REMARK  181  A    between atoms: _410  and  _411
REMARK  182  A    between atoms: _411  and  _412
REMARK  183  A    between atoms: _421  and  _423
REMARK  184  A    between atoms: _423  and  _424
REMARK  185  A    between atoms: _423  and  _426
REMARK  186  A    between atoms: _426  and  _427
REMARK  187  A    between atoms: _430  and  _432
REMARK  188  A    between atoms: _432  and  _433
REMARK  189  A    between atoms: _432  and  _435
REMARK  190  A    between atoms: _435  and  _436
REMARK  191  A    between atoms: _439  and  _441
REMARK  192  A    between atoms: _441  and  _442
REMARK  193  A    between atoms: _441  and  _444
REMARK  194  A    between atoms: _444  and  _445
REMARK  195  A    between atoms: _445  and  _446
REMARK  196  A    between atoms: _446  and  _447
REMARK  197  A    between atoms: _447  and  _448
REMARK  198  A    between atoms: _453  and  _454
REMARK  199  A    between atoms: _459  and  _461
REMARK  200  A    between atoms: _461  and  _462
REMARK  201  A    between atoms: _461  and  _464
REMARK  202  A    between atoms: _464  and  _465
REMARK  203  A    between atoms: _465  and  _466
REMARK  204  A    between atoms: _469  and  _471
REMARK  205  A    between atoms: _471  and  _472
REMARK  206  A    between atoms: _471  and  _474
REMARK  207  A    between atoms: _474  and  _475
REMARK  208  A    between atoms: _480  and  _482
REMARK  209  A    between atoms: _482  and  _483
REMARK  210  A    between atoms: _482  and  _485
REMARK  211  A    between atoms: _485  and  _486
REMARK  212  A    between atoms: _489  and  _491
REMARK  213  A    between atoms: _491  and  _492
REMARK  214  A    between atoms: _491  and  _494
REMARK  215  A    between atoms: _494  and  _495
REMARK  216  A    between atoms: _498  and  _500
REMARK  217  A    between atoms: _500  and  _501
REMARK  218  A    between atoms: _500  and  _503
REMARK  219  A    between atoms: _503  and  _504
REMARK  220  A    between atoms: _507  and  _509
REMARK  221  A    between atoms: _509  and  _510
REMARK  222  A    between atoms: _509  and  _512
REMARK  223  A    between atoms: _512  and  _513
REMARK  224  A    between atoms: _513  and  _514
REMARK  225  A    between atoms: _519  and  _521
REMARK  226  A    between atoms: _521  and  _522
REMARK  227  A    between atoms: _521  and  _524
REMARK  228  A    between atoms: _527  and  _529
REMARK  229  A    between atoms: _529  and  _530
REMARK  230  A    between atoms: _529  and  _532
REMARK  231  A    between atoms: _532  and  _533
REMARK  232  A    between atoms: _536  and  _538
REMARK  233  A    between atoms: _538  and  _539
REMARK  234  A    between atoms: _538  and  _541
REMARK  235  A    between atoms: _541  and  _542
REMARK  236  A    between atoms: _545  and  _547
REMARK  237  A    between atoms: _547  and  _548
REMARK  238  A    between atoms: _547  and  _550
REMARK  239  A    between atoms: _550  and  _551
REMARK  240  A    between atoms: _557  and  _559
REMARK  241  A    between atoms: _559  and  _560
REMARK  242  A    between atoms: _562  and  _564
REMARK  243  A    between atoms: _564  and  _565
REMARK  244  A    between atoms: _564  and  _567
REMARK  245  A    between atoms: _567  and  _568
REMARK  246  A    between atoms: _574  and  _576
REMARK  247  A    between atoms: _576  and  _577
REMARK  248  A    between atoms: _576  and  _579
REMARK  249  A    between atoms: _581  and  _583
REMARK  250  A    between atoms: _583  and  _584
REMARK  251  A    between atoms: _586  and  _588
REMARK  252  A    between atoms: _588  and  _589
REMARK  253  A    between atoms: _588  and  _591
REMARK  254  A    between atoms: _591  and  _592
REMARK  255  A    between atoms: _596  and  _597
REMARK  256  A    between atoms: _602  and  _604
REMARK  257  A    between atoms: _604  and  _605
REMARK  258  A    between atoms: _604  and  _607
REMARK  259  A    between atoms: _607  and  _608
REMARK  260  A    between atoms: _613  and  _614
REMARK  261  A    between atoms: _616  and  _618
REMARK  262  A    between atoms: _618  and  _619
REMARK  263  A    between atoms: _618  and  _621
REMARK  264  A    between atoms: _621  and  _622
REMARK  265  A    between atoms: _625  and  _627
REMARK  266  A    between atoms: _627  and  _628
REMARK  267  A    between atoms: _627  and  _630
REMARK  268  A    between atoms: _630  and  _631
REMARK  269  A    between atoms: _636  and  _638
REMARK  270  A    between atoms: _638  and  _639
REMARK  271  A    between atoms: _638  and  _641
REMARK  272  A    between atoms: _641  and  _642
REMARK  273  A    between atoms: _648  and  _650
REMARK  274  A    between atoms: _650  and  _651
REMARK  275  A    between atoms: _650  and  _653
REMARK  276  A    between atoms: _653  and  _654
REMARK  277  A    between atoms: _657  and  _659
REMARK  278  A    between atoms: _659  and  _660
REMARK  279  A    between atoms: _659  and  _662
REMARK  280  A    between atoms: _662  and  _663
REMARK  281  A    between atoms: _668  and  _669
REMARK  282  A    between atoms: _671  and  _673
REMARK  283  A    between atoms: _673  and  _674
REMARK  284  A    between atoms: _673  and  _676
REMARK  285  A    between atoms: _676  and  _677
REMARK  286  A    between atoms: _677  and  _678
REMARK                            x       y       z     vdW  Elec       q    Type
REMARK                         _______ _______ _______ _____ _____    ______ ____
ROOT
ATOM      1  CA  PHE A   7      38.891  18.623   4.147  0.00  0.00    +0.153 C 
ENDROOT
BRANCH   1   2
ATOM      2  C   PHE A   7      37.657  19.060   3.367  0.00  0.00    +0.241 C 
ATOM      3  N   GLY A   8      37.113  20.214   3.690  0.00  0.00    -0.295 N 
ATOM      4  H   GLY A   8      37.561  20.828   4.400  0.00  0.00    +0.150 HD
ATOM      5  O   PHE A   7      37.186  18.356   2.489  0.00  0.00    -0.273 OA
BRANCH   3   6
ATOM      6  CA  GLY A   8      35.886  20.616   3.046  0.00  0.00    +0.176 C 
BRANCH   6   7
ATOM      7  C   GLY A   8      35.524  22.034   3.389  0.00  0.00    +0.243 C 
ATOM      8  O   GLY A   8      36.239  22.707   4.156  0.00  0.00    -0.273 OA
ATOM      9  N   ARG A   9      34.421  22.498   2.803  0.00  0.00    -0.297 N 
ATOM     10  H   ARG A   9      33.972  21.939   2.049  0.00  0.00    +0.150 HD
BRANCH   9  11
ATOM     11  CA  ARG A   9      33.828  23.774   3.196  0.00  0.00    +0.149 C 
BRANCH  11  12
ATOM     12  C   ARG A   9      32.307  23.699   3.134  0.00  0.00    +0.241 C 
ATOM     13  N   VAL A  10      31.642  24.672   3.742  0.00  0.00    -0.297 N 
ATOM     14  H   VAL A  10      32.162  25.370   4.311  0.00  0.00    +0.150 HD
ATOM     15  O   ARG A   9      31.748  22.746   2.589  0.00  0.00    -0.273 OA
BRANCH  13  16
ATOM     16  CA  VAL A  10      30.181  24.778   3.624  0.00  0.00    +0.149 C 
BRANCH  16  17
ATOM     17  C   VAL A  10      29.861  26.070   2.906  0.00  0.00    +0.241 C 
ATOM     18  O   VAL A  10      30.335  27.147   3.295  0.00  0.00    -0.273 OA
ATOM     19  N   MET A  11      29.037  25.969   1.875  0.00  0.00    -0.297 N 
ATOM     20  H   MET A  11      28.676  25.035   1.595  0.00  0.00    +0.150 HD
BRANCH  19  21
ATOM     21  CA  MET A  11      28.626  27.162   1.122  0.00  0.00    +0.149 C 
BRANCH  21  22
ATOM     22  C   MET A  11      27.117  27.436   1.068  0.00  0.00    +0.241 C 
ATOM     23  N   LEU A  12      26.756  28.716   1.062  0.00  0.00    -0.298 N 
ATOM     24  H   LEU A  12      27.450  29.443   1.330  0.00  0.00    +0.150 HD
ATOM     25  O   MET A  11      26.316  26.523   1.053  0.00  0.00    -0.273 OA
BRANCH  23  26
ATOM     26  CA  LEU A  12      25.406  29.119   0.687  0.00  0.00    +0.137 C 
BRANCH  26  27
ATOM     27  C   LEU A  12      25.260  28.885  -0.819  0.00  0.00    +0.227 C 
ATOM     28  O   LEU A  12      26.020  29.411  -1.617  0.00  0.00    -0.286 OA
ENDBRANCH  26  27
BRANCH  26  29
ATOM     29  CB  LEU A  12      25.113  30.598   1.064  0.00  0.00    +0.028 C 
BRANCH  29  30
ATOM     30  CG  LEU A  12      23.677  31.117   1.400  0.00  0.00    +0.002 C 
ATOM     31  CD2 LEU A  12      22.537  30.202   1.167  0.00  0.00    +0.000 C 
ATOM     32  CD1 LEU A  12      23.354  32.448   0.734  0.00  0.00    +0.000 C 
ENDBRANCH  29  30
ENDBRANCH  26  29
ENDBRANCH  23  26
ENDBRANCH  21  22
BRANCH  21  33
ATOM     33  CB  MET A  11      29.213  27.100  -0.287  0.00  0.00    +0.041 C 
BRANCH  33  34
ATOM     34  CG  MET A  11      30.772  27.118  -0.274  0.00  0.00    +0.060 C 
BRANCH  34  35
ATOM     35  SD  MET A  11      31.294  27.382  -1.946  0.00  0.00    -0.139 S 
ATOM     36  CE  MET A  11      30.912  29.137  -2.124  0.00  0.00    +0.069 C 
ENDBRANCH  34  35
ENDBRANCH  33  34
ENDBRANCH  21  33
ENDBRANCH  19  21
ENDBRANCH  16  17
BRANCH  16  37
ATOM     37  CB  VAL A  10      29.449  24.713   5.009  0.00  0.00    +0.027 C 
ATOM     38  CG2 VAL A  10      29.828  23.480   5.758  0.00  0.00    +0.002 C 
ATOM     39  CG1 VAL A  10      27.954  24.772   4.840  0.00  0.00    +0.002 C 
ENDBRANCH  16  37
ENDBRANCH  13  16
ENDBRANCH  11  12
BRANCH  11  40
ATOM     40  CB  ARG A   9      34.404  24.944   2.379  0.00  0.00    +0.033 C 
BRANCH  40  41
ATOM     41  CG  ARG A   9      34.142  24.926   0.879  0.00  0.00    +0.045 C 
BRANCH  41  42
ATOM     42  CD  ARG A   9      35.260  25.642   0.110  0.00  0.00    +0.174 C 
BRANCH  42  43
ATOM     43  NE  ARG A   9      35.272  27.108   0.270  0.00  0.00    -0.265 N 
ATOM     44  CZ  ARG A   9      36.292  27.830   0.761  0.00  0.00    +0.342 C 
ATOM     45  NH2 ARG A   9      37.419  27.255   1.176  0.00  0.00    -0.292 N 
ATOM     46 HH21 ARG A   9      38.193  27.839   1.552  0.00  0.00    +0.255 HD
ATOM     47 HH22 ARG A   9      37.525  26.222   1.124  0.00  0.00    +0.255 HD
ATOM     48  NH1 ARG A   9      36.183  29.152   0.845  0.00  0.00    -0.292 N 
ATOM     49 HH11 ARG A   9      36.970  29.716   1.225  0.00  0.00    +0.255 HD
ATOM     50 HH12 ARG A   9      35.310  29.623   0.531  0.00  0.00    +0.255 HD
ATOM     51  HE  ARG A   9      34.419  27.626  -0.022  0.00  0.00    +0.259 HD
ENDBRANCH  42  43
ENDBRANCH  41  42
ENDBRANCH  40  41
ENDBRANCH  11  40
ENDBRANCH   9  11
ENDBRANCH   6   7
ENDBRANCH   3   6
ENDBRANCH   1   2
BRANCH   1  53
ATOM     52  C   SER A   6      40.399  19.994   5.499  0.00  0.00    +0.243 C 
ATOM     53  N   PHE A   7      39.190  19.455   5.324  0.00  0.00    -0.297 N 
ATOM     54  H   PHE A   7      38.447  19.626   6.031  0.00  0.00    +0.150 HD
ATOM     55  O   SER A   6      41.344  19.740   4.748  0.00  0.00    -0.273 OA
BRANCH  52  56
ATOM     56  CA  SER A   6      40.602  20.941   6.688  0.00  0.00    +0.178 C 
BRANCH  56  58
ATOM     57  C   GLY A   5      38.847  22.635   6.668  0.00  0.00    +0.243 C 
ATOM     58  N   SER A   6      39.367  21.528   7.183  0.00  0.00    -0.295 N 
ATOM     59  H   SER A   6      38.872  21.063   7.971  0.00  0.00    +0.150 HD
ATOM     60  O   GLY A   5      39.296  23.186   5.671  0.00  0.00    -0.273 OA
BRANCH  57  61
ATOM     61  CA  GLY A   5      37.636  23.201   7.377  0.00  0.00    +0.176 C 
BRANCH  61  64
ATOM     62  C   THR A   4      36.449  25.286   7.150  0.00  0.00    +0.243 C 
ATOM     63  O   THR A   4      36.139  25.278   8.343  0.00  0.00    -0.273 OA
ATOM     64  N   GLY A   5      37.163  24.324   6.603  0.00  0.00    -0.295 N 
ATOM     65  H   GLY A   5      37.391  24.375   5.590  0.00  0.00    +0.150 HD
BRANCH  62  66
ATOM     66  CA  THR A   4      35.975  26.398   6.213  0.00  0.00    +0.176 C 
BRANCH  66  68
ATOM     67  C   GLY A   3      33.619  27.120   6.168  0.00  0.00    +0.243 C 
ATOM     68  N   THR A   4      34.805  27.091   6.769  0.00  0.00    -0.295 N 
ATOM     69  H   THR A   4      34.910  27.584   7.679  0.00  0.00    +0.150 HD
ATOM     70  O   GLY A   3      33.385  26.608   5.073  0.00  0.00    -0.273 OA
BRANCH  67  71
ATOM     71  CA  GLY A   3      32.548  27.855   6.926  0.00  0.00    +0.176 C 
BRANCH  71  74
ATOM     72  C   LEU A   2      30.752  29.388   6.441  0.00  0.00    +0.241 C 
ATOM     73  O   LEU A   2      30.685  29.708   7.628  0.00  0.00    -0.273 OA
ATOM     74  N   GLY A   3      31.639  28.510   6.009  0.00  0.00    -0.295 N 
ATOM     75  H   GLY A   3      31.685  28.286   4.995  0.00  0.00    +0.150 HD
BRANCH  72  76
ATOM     76  CA  LEU A   2      29.797  29.984   5.368  0.00  0.00    +0.149 C 
BRANCH  76  78
ATOM     77  C   THR A   1      30.927  30.837   3.331  0.00  0.00    +0.241 C 
ATOM     78  N   LEU A   2      30.284  29.859   3.968  0.00  0.00    -0.297 N 
ATOM     79  H   LEU A   2      30.115  28.966   3.462  0.00  0.00    +0.150 HD
ATOM     80  O   THR A   1      31.118  31.957   3.819  0.00  0.00    -0.274 OA
BRANCH  77  81
ATOM     81  CA  THR A   1      31.410  30.506   1.916  0.00  0.00    +0.172 C 
BRANCH  81  82
ATOM     82  CB  THR A   1      32.933  30.374   1.799  0.00  0.00    +0.135 C 
ATOM     83  CG2 THR A   1      33.493  29.312   2.791  0.00  0.00    +0.034 C 
BRANCH  82  84
ATOM     84  OG1 THR A   1      33.257  29.986   0.460  0.00  0.00    -0.383 OA
ATOM     85  HG1 THR A   1      32.929  30.675  -0.171  0.00  0.00    +0.210 HD
ENDBRANCH  82  84
ENDBRANCH  81  82
BRANCH  81  86
ATOM     86  N   THR A   1      30.898  31.469   0.967  0.00  0.00    -0.236 NA
ATOM     87  H   THR A   1      31.514  32.241   0.642  0.00  0.00    +0.142 HD
ENDBRANCH  81  86
ENDBRANCH  77  81
ENDBRANCH  76  78
BRANCH  76  88
ATOM     88  CB  LEU A   2      28.435  29.306   5.475  0.00  0.00    +0.029 C 
BRANCH  88  89
ATOM     89  CG  LEU A   2      27.360  29.814   4.506  0.00  0.00    +0.002 C 
ATOM     90  CD2 LEU A   2      26.933  31.204   4.908  0.00  0.00    +0.000 C 
ATOM     91  CD1 LEU A   2      26.191  28.843   4.570  0.00  0.00    +0.000 C 
ENDBRANCH  88  89
ENDBRANCH  76  88
ENDBRANCH  72  76
ENDBRANCH  71  74
ENDBRANCH  67  71
ENDBRANCH  66  68
BRANCH  66  92
ATOM     92  CB  THR A   4      37.135  27.378   5.937  0.00  0.00    +0.137 C 
ATOM     93  CG2 THR A   4      36.781  28.315   4.771  0.00  0.00    +0.034 C 
BRANCH  92  94
ATOM     94  OG1 THR A   4      37.415  28.150   7.116  0.00  0.00    -0.382 OA
ATOM     95  HG1 THR A   4      38.160  28.775   6.930  0.00  0.00    +0.210 HD
ENDBRANCH  92  94
ENDBRANCH  66  92
ENDBRANCH  62  66
ENDBRANCH  61  64
ENDBRANCH  57  61
ENDBRANCH  56  58
BRANCH  56  96
ATOM     96  CB  SER A   6      41.341  20.241   7.857  0.00  0.00    +0.166 C 
BRANCH  96  97
ATOM     97  OG  SER A   6      40.580  19.176   8.405  0.00  0.00    -0.380 OA
ATOM     98  H   SER A   6      41.086  18.757   9.146  0.00  0.00    +0.211 HD
ENDBRANCH  96  97
ENDBRANCH  56  96
ENDBRANCH  52  56
ENDBRANCH   1  53
BRANCH   1  99
ATOM     99  CB  PHE A   7      38.858  17.101   4.460  0.00  0.00    +0.055 C 
BRANCH  99 100
ATOM    100  CG  PHE A   7      37.899  16.678   5.572  0.00  0.00    -0.020 A 
ATOM    101  CD2 PHE A   7      38.348  16.544   6.886  0.00  0.00    -0.004 A 
ATOM    102  CE2 PHE A   7      37.472  16.122   7.917  0.00  0.00    -0.000 A 
ATOM    103  CZ  PHE A   7      36.146  15.810   7.612  0.00  0.00    -0.000 A 
ATOM    104  CE1 PHE A   7      35.690  15.938   6.321  0.00  0.00    -0.000 A 
ATOM    105  CD1 PHE A   7      36.571  16.356   5.295  0.00  0.00    -0.004 A 
ENDBRANCH  99 100
ENDBRANCH   1  99
TORSDOF 44
REMARK  Name = ../refined-set-2016/3bwj/3bwj_pocket.pdb
REMARK  286 active torsions:
REMARK  status: ('A' for Active; 'I' for Inactive)
REMARK    1  A    between atoms: _1  and  _3
REMARK    2  A    between atoms: _3  and  _4
REMARK    3  A    between atoms: _3  and  _6
REMARK    4  A    between atoms: _6  and  _7
REMARK    5  A    between atoms: _10  and  _12
REMARK    6  A    between atoms: _12  and  _13
REMARK    7  A    between atoms: _12  and  _15
REMARK    8  A    between atoms: _15  and  _16
REMARK    9  A    between atoms: _19  and  _21
REMARK   10  A    between atoms: _21  and  _22
REMARK   11  A    between atoms: _24  and  _26
REMARK   12  A    between atoms: _26  and  _27
REMARK   13  A    between atoms: _26  and  _29
REMARK   14  A    between atoms: _29  and  _30
REMARK   15  A    between atoms: _33  and  _35
REMARK   16  A    between atoms: _35  and  _36
REMARK   17  A    between atoms: _38  and  _40
REMARK   18  A    between atoms: _40  and  _41
REMARK   19  A    between atoms: _40  and  _43
REMARK   20  A    between atoms: _43  and  _44
REMARK   21  A    between atoms: _46  and  _48
REMARK   22  A    between atoms: _48  and  _49
REMARK   23  A    between atoms: _48  and  _51
REMARK   24  A    between atoms: _51  and  _52
REMARK   25  A    between atoms: _58  and  _60
REMARK   26  A    between atoms: _60  and  _61
REMARK   27  A    between atoms: _63  and  _65
REMARK   28  A    between atoms: _65  and  _66
REMARK   29  A    between atoms: _65  and  _68
REMARK   30  A    between atoms: _68  and  _69
REMARK   31  A    between atoms: _69  and  _70
REMARK   32  A    between atoms: _70  and  _71
REMARK   33  A    between atoms: _80  and  _82
REMARK   34  A    between atoms: _82  and  _83
REMARK   35  A    between atoms: _82  and  _85
REMARK   36  A    between atoms: _88  and  _90
REMARK   37  A    between atoms: _90  and  _91
REMARK   38  A    between atoms: _90  and  _93
REMARK   39  A    between atoms: _93  and  _94
REMARK   40  A    between atoms: _94  and  _95
REMARK   41  A    between atoms: _97  and  _99
REMARK   42  A    between atoms: _99  and  _100
REMARK   43  A    between atoms: _99  and  _102
REMARK   44  A    between atoms: _102  and  _103
REMARK   45  A    between atoms: _106  and  _108
REMARK   46  A    between atoms: _108  and  _109
REMARK   47  A    between atoms: _108  and  _111
REMARK   48  A    between atoms: _111  and  _112
REMARK   49  A    between atoms: _117  and  _118
REMARK   50  A    between atoms: _120  and  _122
REMARK   51  A    between atoms: _122  and  _123
REMARK   52  A    between atoms: _126  and  _128
REMARK   53  A    between atoms: _128  and  _129
REMARK   54  A    between atoms: _128  and  _131
REMARK   55  A    between atoms: _131  and  _132
REMARK   56  A    between atoms: _132  and  _133
REMARK   57  A    between atoms: _135  and  _137
REMARK   58  A    between atoms: _137  and  _138
REMARK   59  A    between atoms: _137  and  _140
REMARK   60  A    between atoms: _140  and  _141
REMARK   61  A    between atoms: _141  and  _142
REMARK   62  A    between atoms: _142  and  _143
REMARK   63  A    between atoms: _143  and  _144
REMARK   64  A    between atoms: _148  and  _150
REMARK   65  A    between atoms: _150  and  _151
REMARK   66  A    between atoms: _150  and  _153
REMARK   67  A    between atoms: _153  and  _154
REMARK   68  A    between atoms: _157  and  _159
REMARK   69  A    between atoms: _159  and  _160
REMARK   70  A    between atoms: _159  and  _162
REMARK   71  A    between atoms: _162  and  _163
REMARK   72  A    between atoms: _166  and  _168
REMARK   73  A    between atoms: _168  and  _169
REMARK   74  A    between atoms: _168  and  _171
REMARK   75  A    between atoms: _171  and  _172
REMARK   76  A    between atoms: _175  and  _177
REMARK   77  A    between atoms: _177  and  _178
REMARK   78  A    between atoms: _177  and  _180
REMARK   79  A    between atoms: _180  and  _181
REMARK   80  A    between atoms: _181  and  _182
REMARK   81  A    between atoms: _182  and  _183
REMARK   82  A    between atoms: _183  and  _184
REMARK   83  A    between atoms: _188  and  _190
REMARK   84  A    between atoms: _190  and  _191
REMARK   85  A    between atoms: _190  and  _193
REMARK   86  A    between atoms: _196  and  _198
REMARK   87  A    between atoms: _198  and  _199
REMARK   88  A    between atoms: _198  and  _201
REMARK   89  A    between atoms: _201  and  _202
REMARK   90  A    between atoms: _205  and  _207
REMARK   91  A    between atoms: _207  and  _208
REMARK   92  A    between atoms: _207  and  _210
REMARK   93  A    between atoms: _210  and  _211
REMARK   94  A    between atoms: _211  and  _212
REMARK   95  A    between atoms: _217  and  _219
REMARK   96  A    between atoms: _219  and  _220
REMARK   97  A    between atoms: _219  and  _222
REMARK   98  A    between atoms: _222  and  _223
REMARK   99  A    between atoms: _226  and  _228
REMARK  100  A    between atoms: _228  and  _229
REMARK  101  A    between atoms: _228  and  _231
REMARK  102  A    between atoms: _231  and  _232
REMARK  103  A    between atoms: _232  and  _233
REMARK  104  A    between atoms: _236  and  _238
REMARK  105  A    between atoms: _238  and  _239
REMARK  106  A    between atoms: _238  and  _241
REMARK  107  A    between atoms: _244  and  _246
REMARK  108  A    between atoms: _246  and  _247
REMARK  109  A    between atoms: _246  and  _249
REMARK  110  A    between atoms: _249  and  _250
REMARK  111  A    between atoms: _250  and  _251
REMARK  112  A    between atoms: _251  and  _252
REMARK  113  A    between atoms: _252  and  _253
REMARK  114  A    between atoms: _257  and  _259
REMARK  115  A    between atoms: _259  and  _260
REMARK  116  A    between atoms: _259  and  _262
REMARK  117  A    between atoms: _262  and  _263
REMARK  118  A    between atoms: _266  and  _268
REMARK  119  A    between atoms: _268  and  _269
REMARK  120  A    between atoms: _268  and  _271
REMARK  121  A    between atoms: _271  and  _272
REMARK  122  A    between atoms: _272  and  _273
REMARK  123  A    between atoms: _276  and  _278
REMARK  124  A    between atoms: _278  and  _279
REMARK  125  A    between atoms: _278  and  _281
REMARK  126  A    between atoms: _281  and  _282
REMARK  127  A    between atoms: _282  and  _283
REMARK  128  A    between atoms: _285  and  _287
REMARK  129  A    between atoms: _287  and  _288
REMARK  130  A    between atoms: _287  and  _290
REMARK  131  A    between atoms: _293  and  _295
REMARK  132  A    between atoms: _295  and  _296
REMARK  133  A    between atoms: _295  and  _298
REMARK  134  A    between atoms: _298  and  _299
REMARK  135  A    between atoms: _299  and  _300
REMARK  136  A    between atoms: _302  and  _304
REMARK  137  A    between atoms: _304  and  _305
REMARK  138  A    between atoms: _304  and  _307
REMARK  139  A    between atoms: _307  and  _308
REMARK  140  A    between atoms: _308  and  _309
REMARK  141  A    between atoms: _312  and  _314
REMARK  142  A    between atoms: _314  and  _315
REMARK  143  A    between atoms: _314  and  _317
REMARK  144  A    between atoms: _317  and  _318
REMARK  145  A    between atoms: _323  and  _324
REMARK  146  A    between atoms: _326  and  _328
REMARK  147  A    between atoms: _328  and  _329
REMARK  148  A    between atoms: _328  and  _331
REMARK  149  A    between atoms: _335  and  _336
REMARK  150  A    between atoms: _341  and  _343
REMARK  151  A    between atoms: _343  and  _344
REMARK  152  A    between atoms: _346  and  _348
REMARK  153  A    between atoms: _348  and  _349
REMARK  154  A    between atoms: _351  and  _353
REMARK  155  A    between atoms: _353  and  _354
REMARK  156  A    between atoms: _353  and  _356
REMARK  157  A    between atoms: _356  and  _357
REMARK  158  A    between atoms: _357  and  _358
REMARK  159  A    between atoms: _361  and  _363
REMARK  160  A    between atoms: _363  and  _364
REMARK  161  A    between atoms: _363  and  _366
REMARK  162  A    between atoms: _366  and  _367
REMARK  163  A    between atoms: _367  and  _368
REMARK  164  A    between atoms: _370  and  _372
REMARK  165  A    between atoms: _372  and  _373
REMARK  166  A    between atoms: _372  and  _375
REMARK  167  A    between atoms: _375  and  _376
REMARK  168  A    between atoms: _382  and  _384
REMARK  169  A    between atoms: _384  and  _385
REMARK  170  A    between atoms: _384  and  _387
REMARK  171  A    between atoms: _387  and  _388
REMARK  172  A    between atoms: _390  and  _392
REMARK  173  A    between atoms: _392  and  _393
REMARK  174  A    between atoms: _392  and  _395
REMARK  175  A    between atoms: _395  and  _396
REMARK  176  A    between atoms: _401  and  _402
REMARK  177  A    between atoms: _404  and  _406
REMARK  178  A    between atoms: _406  and  _407
REMARK  179  A    between atoms: _406  and  _409
REMARK  180  A    between atoms: _409  and  _410
REMARK  181  A    between atoms: _410  and  _411
REMARK  182  A    between atoms: _411  and  _412
REMARK  183  A    between atoms: _421  and  _423
REMARK  184  A    between atoms: _423  and  _424
REMARK  185  A    between atoms: _423  and  _426
REMARK  186  A    between atoms: _426  and  _427
REMARK  187  A    between atoms: _430  and  _432
REMARK  188  A    between atoms: _432  and  _433
REMARK  189  A    between atoms: _432  and  _435
REMARK  190  A    between atoms: _435  and  _436
REMARK  191  A    between atoms: _439  and  _441
REMARK  192  A    between atoms: _441  and  _442
REMARK  193  A    between atoms: _441  and  _444
REMARK  194  A    between atoms: _444  and  _445
REMARK  195  A    between atoms: _445  and  _446
REMARK  196  A    between atoms: _446  and  _447
REMARK  197  A    between atoms: _447  and  _448
REMARK  198  A    between atoms: _453  and  _454
REMARK  199  A    between atoms: _459  and  _461
REMARK  200  A    between atoms: _461  and  _462
REMARK  201  A    between atoms: _461  and  _464
REMARK  202  A    between atoms: _464  and  _465
REMARK  203  A    between atoms: _465  and  _466
REMARK  204  A    between atoms: _469  and  _471
REMARK  205  A    between atoms: _471  and  _472
REMARK  206  A    between atoms: _471  and  _474
REMARK  207  A    between atoms: _474  and  _475
REMARK  208  A    between atoms: _480  and  _482
REMARK  209  A    between atoms: _482  and  _483
REMARK  210  A    between atoms: _482  and  _485
REMARK  211  A    between atoms: _485  and  _486
REMARK  212  A    between atoms: _489  and  _491
REMARK  213  A    between atoms: _491  and  _492
REMARK  214  A    between atoms: _491  and  _494
REMARK  215  A    between atoms: _494  and  _495
REMARK  216  A    between atoms: _498  and  _500
REMARK  217  A    between atoms: _500  and  _501
REMARK  218  A    between atoms: _500  and  _503
REMARK  219  A    between atoms: _503  and  _504
REMARK  220  A    between atoms: _507  and  _509
REMARK  221  A    between atoms: _509  and  _510
REMARK  222  A    between atoms: _509  and  _512
REMARK  223  A    between atoms: _512  and  _513
REMARK  224  A    between atoms: _513  and  _514
REMARK  225  A    between atoms: _519  and  _521
REMARK  226  A    between atoms: _521  and  _522
REMARK  227  A    between atoms: _521  and  _524
REMARK  228  A    between atoms: _527  and  _529
REMARK  229  A    between atoms: _529  and  _530
REMARK  230  A    between atoms: _529  and  _532
REMARK  231  A    between atoms: _532  and  _533
REMARK  232  A    between atoms: _536  and  _538
REMARK  233  A    between atoms: _538  and  _539
REMARK  234  A    between atoms: _538  and  _541
REMARK  235  A    between atoms: _541  and  _542
REMARK  236  A    between atoms: _545  and  _547
REMARK  237  A    between atoms: _547  and  _548
REMARK  238  A    between atoms: _547  and  _550
REMARK  239  A    between atoms: _550  and  _551
REMARK  240  A    between atoms: _557  and  _559
REMARK  241  A    between atoms: _559  and  _560
REMARK  242  A    between atoms: _562  and  _564
REMARK  243  A    between atoms: _564  and  _565
REMARK  244  A    between atoms: _564  and  _567
REMARK  245  A    between atoms: _567  and  _568
REMARK  246  A    between atoms: _574  and  _576
REMARK  247  A    between atoms: _576  and  _577
REMARK  248  A    between atoms: _576  and  _579
REMARK  249  A    between atoms: _581  and  _583
REMARK  250  A    between atoms: _583  and  _584
REMARK  251  A    between atoms: _586  and  _588
REMARK  252  A    between atoms: _588  and  _589
REMARK  253  A    between atoms: _588  and  _591
REMARK  254  A    between atoms: _591  and  _592
REMARK  255  A    between atoms: _596  and  _597
REMARK  256  A    between atoms: _602  and  _604
REMARK  257  A    between atoms: _604  and  _605
REMARK  258  A    between atoms: _604  and  _607
REMARK  259  A    between atoms: _607  and  _608
REMARK  260  A    between atoms: _613  and  _614
REMARK  261  A    between atoms: _616  and  _618
REMARK  262  A    between atoms: _618  and  _619
REMARK  263  A    between atoms: _618  and  _621
REMARK  264  A    between atoms: _621  and  _622
REMARK  265  A    between atoms: _625  and  _627
REMARK  266  A    between atoms: _627  and  _628
REMARK  267  A    between atoms: _627  and  _630
REMARK  268  A    between atoms: _630  and  _631
REMARK  269  A    between atoms: _636  and  _638
REMARK  270  A    between atoms: _638  and  _639
REMARK  271  A    between atoms: _638  and  _641
REMARK  272  A    between atoms: _641  and  _642
REMARK  273  A    between atoms: _648  and  _650
REMARK  274  A    between atoms: _650  and  _651
REMARK  275  A    between atoms: _650  and  _653
REMARK  276  A    between atoms: _653  and  _654
REMARK  277  A    between atoms: _657  and  _659
REMARK  278  A    between atoms: _659  and  _660
REMARK  279  A    between atoms: _659  and  _662
REMARK  280  A    between atoms: _662  and  _663
REMARK  281  A    between atoms: _668  and  _669
REMARK  282  A    between atoms: _671  and  _673
REMARK  283  A    between atoms: _673  and  _674
REMARK  284  A    between atoms: _673  and  _676
REMARK  285  A    between atoms: _676  and  _677
REMARK  286  A    between atoms: _677  and  _678
REMARK                            x       y       z     vdW  Elec       q    Type
REMARK                         _______ _______ _______ _____ _____    ______ ____
ROOT
ATOM      1  CA  LYS A   4      28.787  20.958   2.573  0.00  0.00    +0.149 C 
ENDROOT
BRANCH   1   3
ATOM      2  C   MET A   3      27.386  22.518   1.358  0.00  0.00    +0.241 C 
ATOM      3  N   LYS A   4      27.504  21.409   2.093  0.00  0.00    -0.297 N 
ATOM      4  H   LYS A   4      26.652  20.859   2.324  0.00  0.00    +0.150 HD
ATOM      5  O   MET A   3      28.315  23.311   1.151  0.00  0.00    -0.273 OA
BRANCH   2   6
ATOM      6  CA  MET A   3      25.999  22.769   0.784  0.00  0.00    +0.149 C 
BRANCH   6   9
ATOM      7  C   ALA A   2      24.492  23.820   2.340  0.00  0.00    +0.241 C 
ATOM      8  O   ALA A   2      23.986  22.736   2.638  0.00  0.00    -0.273 OA
ATOM      9  N   MET A   3      25.479  23.917   1.477  0.00  0.00    -0.297 N 
ATOM     10  H   MET A   3      25.896  24.851   1.290  0.00  0.00    +0.150 HD
BRANCH   7  11
ATOM     11  CA  ALA A   2      23.949  25.150   2.886  0.00  0.00    +0.149 C 
ATOM     12  CB  ALA A   2      24.104  25.233   4.357  0.00  0.00    +0.031 C 
BRANCH  11  14
ATOM     13  C   TYR A   1      22.141  25.981   1.457  0.00  0.00    +0.239 C 
ATOM     14  N   ALA A   2      22.550  25.297   2.520  0.00  0.00    -0.297 N 
ATOM     15  H   ALA A   2      21.832  24.844   3.121  0.00  0.00    +0.150 HD
ATOM     16  O   TYR A   1      22.865  26.733   0.808  0.00  0.00    -0.274 OA
BRANCH  13  17
ATOM     17  CA  TYR A   1      20.678  25.764   1.057  0.00  0.00    +0.149 C 
BRANCH  17  18
ATOM     18  N   TYR A   1      20.206  26.884   0.255  0.00  0.00    -0.238 NA
ATOM     19  H   TYR A   1      20.850  27.290  -0.454  0.00  0.00    +0.142 HD
ENDBRANCH  17  18
BRANCH  17  20
ATOM     20  CB  TYR A   1      20.559  24.450   0.263  0.00  0.00    +0.053 C 
BRANCH  20  21
ATOM     21  CG  TYR A   1      19.162  24.058  -0.129  0.00  0.00    -0.020 A 
ATOM     22  CD2 TYR A   1      18.388  23.252   0.718  0.00  0.00    -0.001 A 
ATOM     23  CE2 TYR A   1      17.114  22.874   0.379  0.00  0.00    +0.036 A 
ATOM     24  CZ  TYR A   1      16.565  23.299  -0.847  0.00  0.00    +0.134 A 
ATOM     25  CE1 TYR A   1      17.310  24.094  -1.722  0.00  0.00    +0.036 A 
ATOM     26  CD1 TYR A   1      18.608  24.476  -1.349  0.00  0.00    -0.001 A 
BRANCH  24  27
ATOM     27  OH  TYR A   1      15.267  22.901  -1.189  0.00  0.00    -0.506 OA
ATOM     28  HH  TYR A   1      14.890  22.347  -0.460  0.00  0.00    +0.292 HD
ENDBRANCH  24  27
ENDBRANCH  20  21
ENDBRANCH  17  20
ENDBRANCH  13  17
ENDBRANCH  11  14
ENDBRANCH   7  11
ENDBRANCH   6   9
BRANCH   6  29
ATOM     29  CB  MET A   3      26.095  23.046  -0.714  0.00  0.00    +0.041 C 
BRANCH  29  30
ATOM     30  CG  MET A   3      26.853  21.994  -1.530  0.00  0.00    +0.060 C 
BRANCH  30  31
ATOM     31  SD  MET A   3      27.117  22.478  -3.260  0.00  0.00    -0.139 S 
ATOM     32  CE  MET A   3      25.635  21.776  -3.934  0.00  0.00    +0.069 C 
ENDBRANCH  30  31
ENDBRANCH  29  30
ENDBRANCH   6  29
ENDBRANCH   2   6
ENDBRANCH   1   3
BRANCH   1  33
ATOM     33  C   LYS A   4      29.522  20.248   1.430  0.00  0.00    +0.241 C 
ATOM     34  N   ILE A   5      30.719  20.746   1.128  0.00  0.00    -0.297 N 
ATOM     35  H   ILE A   5      31.066  21.559   1.676  0.00  0.00    +0.150 HD
ATOM     36  O   LYS A   4      29.021  19.276   0.858  0.00  0.00    -0.273 OA
BRANCH  34  37
ATOM     37  CA  ILE A   5      31.579  20.209   0.060  0.00  0.00    +0.149 C 
BRANCH  37  38
ATOM     38  C   ILE A   5      32.856  19.611   0.665  0.00  0.00    +0.241 C 
ATOM     39  O   ILE A   5      33.611  20.299   1.331  0.00  0.00    -0.273 OA
ATOM     40  N   LEU A   6      33.086  18.333   0.414  0.00  0.00    -0.297 N 
ATOM     41  H   LEU A   6      32.471  17.831  -0.258  0.00  0.00    +0.150 HD
BRANCH  40  42
ATOM     42  CA  LEU A   6      34.183  17.605   1.057  0.00  0.00    +0.149 C 
BRANCH  42  43
ATOM     43  C   LEU A   6      35.099  17.083  -0.012  0.00  0.00    +0.241 C 
ATOM     44  N   ASP A   7      36.378  17.392   0.123  0.00  0.00    -0.298 N 
ATOM     45  H   ASP A   7      36.688  17.966   0.933  0.00  0.00    +0.150 HD
ATOM     46  O   LEU A   6      34.651  16.437  -0.946  0.00  0.00    -0.273 OA
BRANCH  44  47
ATOM     47  CA  ASP A   7      37.356  16.933  -0.856  0.00  0.00    +0.148 C 
BRANCH  47  48
ATOM     48  C   ASP A   7      37.651  15.461  -0.590  0.00  0.00    +0.227 C 
ATOM     49  O   ASP A   7      38.234  15.130   0.435  0.00  0.00    -0.286 OA
ENDBRANCH  47  48
BRANCH  47  50
ATOM     50  CB  ASP A   7      38.647  17.729  -0.758  0.00  0.00    +0.142 C 
BRANCH  50  51
ATOM     51  CG  ASP A   7      39.644  17.389  -1.885  0.00  0.00    +0.367 C 
ATOM     52  OD2 ASP A   7      40.334  18.342  -2.316  0.00  0.00    -0.246 OA
ATOM     53  OD1 ASP A   7      39.739  16.204  -2.355  0.00  0.00    -0.246 OA
ENDBRANCH  50  51
ENDBRANCH  47  50
ENDBRANCH  44  47
ENDBRANCH  42  43
BRANCH  42  54
ATOM     54  CB  LEU A   6      33.680  16.440   1.935  0.00  0.00    +0.029 C 
BRANCH  54  55
ATOM     55  CG  LEU A   6      32.682  16.677   3.064  0.00  0.00    +0.002 C 
ATOM     56  CD2 LEU A   6      33.119  17.781   4.029  0.00  0.00    +0.000 C 
ATOM     57  CD1 LEU A   6      32.446  15.344   3.831  0.00  0.00    +0.000 C 
ENDBRANCH  54  55
ENDBRANCH  42  54
ENDBRANCH  40  42
ENDBRANCH  37  38
BRANCH  37  58
ATOM     58  CB  ILE A   5      32.020  21.306  -0.962  0.00  0.00    +0.027 C 
ATOM     59  CG2 ILE A   5      32.820  20.655  -2.118  0.00  0.00    +0.002 C 
BRANCH  58  60
ATOM     60  CG1 ILE A   5      30.813  22.038  -1.565  0.00  0.00    +0.002 C 
ATOM     61  CD1 ILE A   5      31.238  23.316  -2.342  0.00  0.00    +0.000 C 
ENDBRANCH  58  60
ENDBRANCH  37  58
ENDBRANCH  34  37
ENDBRANCH   1  33
BRANCH   1  62
ATOM     62  CB  LYS A   4      28.598  20.025   3.754  0.00  0.00    +0.029 C 
BRANCH  62  63
ATOM     63  CG  LYS A   4      29.849  19.863   4.578  0.00  0.00    +0.000 C 
BRANCH  63  64
ATOM     64  CD  LYS A   4      29.679  18.643   5.432  0.00  0.00    -0.024 C 
BRANCH  64  65
ATOM     65  CE  LYS A   4      30.395  18.804   6.700  0.00  0.00    -0.086 C 
BRANCH  65  66
ATOM     66  NZ  LYS A   4      29.543  18.232   7.771  0.00  0.00    +0.380 N 
ATOM     67  HZ1 LYS A   4      30.026  18.332   8.687  0.00  0.00    -0.089 HD
ATOM     68  HZ2 LYS A   4      28.636  18.740   7.799  0.00  0.00    -0.089 HD
ATOM     69  HZ3 LYS A   4      29.372  17.225   7.576  0.00  0.00    -0.089 HD
ENDBRANCH  65  66
ENDBRANCH  64  65
ENDBRANCH  63  64
ENDBRANCH  62  63
ENDBRANCH   1  62
TORSDOF 31
REMARK  Name = ../refined-set-2016/3bwj/3bwj_pocket.pdb
REMARK  286 active torsions:
REMARK  status: ('A' for Active; 'I' for Inactive)
REMARK    1  A    between atoms: _1  and  _3
REMARK    2  A    between atoms: _3  and  _4
REMARK    3  A    between atoms: _3  and  _6
REMARK    4  A    between atoms: _6  and  _7
REMARK    5  A    between atoms: _10  and  _12
REMARK    6  A    between atoms: _12  and  _13
REMARK    7  A    between atoms: _12  and  _15
REMARK    8  A    between atoms: _15  and  _16
REMARK    9  A    between atoms: _19  and  _21
REMARK   10  A    between atoms: _21  and  _22
REMARK   11  A    between atoms: _24  and  _26
REMARK   12  A    between atoms: _26  and  _27
REMARK   13  A    between atoms: _26  and  _29
REMARK   14  A    between atoms: _29  and  _30
REMARK   15  A    between atoms: _33  and  _35
REMARK   16  A    between atoms: _35  and  _36
REMARK   17  A    between atoms: _38  and  _40
REMARK   18  A    between atoms: _40  and  _41
REMARK   19  A    between atoms: _40  and  _43
REMARK   20  A    between atoms: _43  and  _44
REMARK   21  A    between atoms: _46  and  _48
REMARK   22  A    between atoms: _48  and  _49
REMARK   23  A    between atoms: _48  and  _51
REMARK   24  A    between atoms: _51  and  _52
REMARK   25  A    between atoms: _58  and  _60
REMARK   26  A    between atoms: _60  and  _61
REMARK   27  A    between atoms: _63  and  _65
REMARK   28  A    between atoms: _65  and  _66
REMARK   29  A    between atoms: _65  and  _68
REMARK   30  A    between atoms: _68  and  _69
REMARK   31  A    between atoms: _69  and  _70
REMARK   32  A    between atoms: _70  and  _71
REMARK   33  A    between atoms: _80  and  _82
REMARK   34  A    between atoms: _82  and  _83
REMARK   35  A    between atoms: _82  and  _85
REMARK   36  A    between atoms: _88  and  _90
REMARK   37  A    between atoms: _90  and  _91
REMARK   38  A    between atoms: _90  and  _93
REMARK   39  A    between atoms: _93  and  _94
REMARK   40  A    between atoms: _94  and  _95
REMARK   41  A    between atoms: _97  and  _99
REMARK   42  A    between atoms: _99  and  _100
REMARK   43  A    between atoms: _99  and  _102
REMARK   44  A    between atoms: _102  and  _103
REMARK   45  A    between atoms: _106  and  _108
REMARK   46  A    between atoms: _108  and  _109
REMARK   47  A    between atoms: _108  and  _111
REMARK   48  A    between atoms: _111  and  _112
REMARK   49  A    between atoms: _117  and  _118
REMARK   50  A    between atoms: _120  and  _122
REMARK   51  A    between atoms: _122  and  _123
REMARK   52  A    between atoms: _126  and  _128
REMARK   53  A    between atoms: _128  and  _129
REMARK   54  A    between atoms: _128  and  _131
REMARK   55  A    between atoms: _131  and  _132
REMARK   56  A    between atoms: _132  and  _133
REMARK   57  A    between atoms: _135  and  _137
REMARK   58  A    between atoms: _137  and  _138
REMARK   59  A    between atoms: _137  and  _140
REMARK   60  A    between atoms: _140  and  _141
REMARK   61  A    between atoms: _141  and  _142
REMARK   62  A    between atoms: _142  and  _143
REMARK   63  A    between atoms: _143  and  _144
REMARK   64  A    between atoms: _148  and  _150
REMARK   65  A    between atoms: _150  and  _151
REMARK   66  A    between atoms: _150  and  _153
REMARK   67  A    between atoms: _153  and  _154
REMARK   68  A    between atoms: _157  and  _159
REMARK   69  A    between atoms: _159  and  _160
REMARK   70  A    between atoms: _159  and  _162
REMARK   71  A    between atoms: _162  and  _163
REMARK   72  A    between atoms: _166  and  _168
REMARK   73  A    between atoms: _168  and  _169
REMARK   74  A    between atoms: _168  and  _171
REMARK   75  A    between atoms: _171  and  _172
REMARK   76  A    between atoms: _175  and  _177
REMARK   77  A    between atoms: _177  and  _178
REMARK   78  A    between atoms: _177  and  _180
REMARK   79  A    between atoms: _180  and  _181
REMARK   80  A    between atoms: _181  and  _182
REMARK   81  A    between atoms: _182  and  _183
REMARK   82  A    between atoms: _183  and  _184
REMARK   83  A    between atoms: _188  and  _190
REMARK   84  A    between atoms: _190  and  _191
REMARK   85  A    between atoms: _190  and  _193
REMARK   86  A    between atoms: _196  and  _198
REMARK   87  A    between atoms: _198  and  _199
REMARK   88  A    between atoms: _198  and  _201
REMARK   89  A    between atoms: _201  and  _202
REMARK   90  A    between atoms: _205  and  _207
REMARK   91  A    between atoms: _207  and  _208
REMARK   92  A    between atoms: _207  and  _210
REMARK   93  A    between atoms: _210  and  _211
REMARK   94  A    between atoms: _211  and  _212
REMARK   95  A    between atoms: _217  and  _219
REMARK   96  A    between atoms: _219  and  _220
REMARK   97  A    between atoms: _219  and  _222
REMARK   98  A    between atoms: _222  and  _223
REMARK   99  A    between atoms: _226  and  _228
REMARK  100  A    between atoms: _228  and  _229
REMARK  101  A    between atoms: _228  and  _231
REMARK  102  A    between atoms: _231  and  _232
REMARK  103  A    between atoms: _232  and  _233
REMARK  104  A    between atoms: _236  and  _238
REMARK  105  A    between atoms: _238  and  _239
REMARK  106  A    between atoms: _238  and  _241
REMARK  107  A    between atoms: _244  and  _246
REMARK  108  A    between atoms: _246  and  _247
REMARK  109  A    between atoms: _246  and  _249
REMARK  110  A    between atoms: _249  and  _250
REMARK  111  A    between atoms: _250  and  _251
REMARK  112  A    between atoms: _251  and  _252
REMARK  113  A    between atoms: _252  and  _253
REMARK  114  A    between atoms: _257  and  _259
REMARK  115  A    between atoms: _259  and  _260
REMARK  116  A    between atoms: _259  and  _262
REMARK  117  A    between atoms: _262  and  _263
REMARK  118  A    between atoms: _266  and  _268
REMARK  119  A    between atoms: _268  and  _269
REMARK  120  A    between atoms: _268  and  _271
REMARK  121  A    between atoms: _271  and  _272
REMARK  122  A    between atoms: _272  and  _273
REMARK  123  A    between atoms: _276  and  _278
REMARK  124  A    between atoms: _278  and  _279
REMARK  125  A    between atoms: _278  and  _281
REMARK  126  A    between atoms: _281  and  _282
REMARK  127  A    between atoms: _282  and  _283
REMARK  128  A    between atoms: _285  and  _287
REMARK  129  A    between atoms: _287  and  _288
REMARK  130  A    between atoms: _287  and  _290
REMARK  131  A    between atoms: _293  and  _295
REMARK  132  A    between atoms: _295  and  _296
REMARK  133  A    between atoms: _295  and  _298
REMARK  134  A    between atoms: _298  and  _299
REMARK  135  A    between atoms: _299  and  _300
REMARK  136  A    between atoms: _302  and  _304
REMARK  137  A    between atoms: _304  and  _305
REMARK  138  A    between atoms: _304  and  _307
REMARK  139  A    between atoms: _307  and  _308
REMARK  140  A    between atoms: _308  and  _309
REMARK  141  A    between atoms: _312  and  _314
REMARK  142  A    between atoms: _314  and  _315
REMARK  143  A    between atoms: _314  and  _317
REMARK  144  A    between atoms: _317  and  _318
REMARK  145  A    between atoms: _323  and  _324
REMARK  146  A    between atoms: _326  and  _328
REMARK  147  A    between atoms: _328  and  _329
REMARK  148  A    between atoms: _328  and  _331
REMARK  149  A    between atoms: _335  and  _336
REMARK  150  A    between atoms: _341  and  _343
REMARK  151  A    between atoms: _343  and  _344
REMARK  152  A    between atoms: _346  and  _348
REMARK  153  A    between atoms: _348  and  _349
REMARK  154  A    between atoms: _351  and  _353
REMARK  155  A    between atoms: _353  and  _354
REMARK  156  A    between atoms: _353  and  _356
REMARK  157  A    between atoms: _356  and  _357
REMARK  158  A    between atoms: _357  and  _358
REMARK  159  A    between atoms: _361  and  _363
REMARK  160  A    between atoms: _363  and  _364
REMARK  161  A    between atoms: _363  and  _366
REMARK  162  A    between atoms: _366  and  _367
REMARK  163  A    between atoms: _367  and  _368
REMARK  164  A    between atoms: _370  and  _372
REMARK  165  A    between atoms: _372  and  _373
REMARK  166  A    between atoms: _372  and  _375
REMARK  167  A    between atoms: _375  and  _376
REMARK  168  A    between atoms: _382  and  _384
REMARK  169  A    between atoms: _384  and  _385
REMARK  170  A    between atoms: _384  and  _387
REMARK  171  A    between atoms: _387  and  _388
REMARK  172  A    between atoms: _390  and  _392
REMARK  173  A    between atoms: _392  and  _393
REMARK  174  A    between atoms: _392  and  _395
REMARK  175  A    between atoms: _395  and  _396
REMARK  176  A    between atoms: _401  and  _402
REMARK  177  A    between atoms: _404  and  _406
REMARK  178  A    between atoms: _406  and  _407
REMARK  179  A    between atoms: _406  and  _409
REMARK  180  A    between atoms: _409  and  _410
REMARK  181  A    between atoms: _410  and  _411
REMARK  182  A    between atoms: _411  and  _412
REMARK  183  A    between atoms: _421  and  _423
REMARK  184  A    between atoms: _423  and  _424
REMARK  185  A    between atoms: _423  and  _426
REMARK  186  A    between atoms: _426  and  _427
REMARK  187  A    between atoms: _430  and  _432
REMARK  188  A    between atoms: _432  and  _433
REMARK  189  A    between atoms: _432  and  _435
REMARK  190  A    between atoms: _435  and  _436
REMARK  191  A    between atoms: _439  and  _441
REMARK  192  A    between atoms: _441  and  _442
REMARK  193  A    between atoms: _441  and  _444
REMARK  194  A    between atoms: _444  and  _445
REMARK  195  A    between atoms: _445  and  _446
REMARK  196  A    between atoms: _446  and  _447
REMARK  197  A    between atoms: _447  and  _448
REMARK  198  A    between atoms: _453  and  _454
REMARK  199  A    between atoms: _459  and  _461
REMARK  200  A    between atoms: _461  and  _462
REMARK  201  A    between atoms: _461  and  _464
REMARK  202  A    between atoms: _464  and  _465
REMARK  203  A    between atoms: _465  and  _466
REMARK  204  A    between atoms: _469  and  _471
REMARK  205  A    between atoms: _471  and  _472
REMARK  206  A    between atoms: _471  and  _474
REMARK  207  A    between atoms: _474  and  _475
REMARK  208  A    between atoms: _480  and  _482
REMARK  209  A    between atoms: _482  and  _483
REMARK  210  A    between atoms: _482  and  _485
REMARK  211  A    between atoms: _485  and  _486
REMARK  212  A    between atoms: _489  and  _491
REMARK  213  A    between atoms: _491  and  _492
REMARK  214  A    between atoms: _491  and  _494
REMARK  215  A    between atoms: _494  and  _495
REMARK  216  A    between atoms: _498  and  _500
REMARK  217  A    between atoms: _500  and  _501
REMARK  218  A    between atoms: _500  and  _503
REMARK  219  A    between atoms: _503  and  _504
REMARK  220  A    between atoms: _507  and  _509
REMARK  221  A    between atoms: _509  and  _510
REMARK  222  A    between atoms: _509  and  _512
REMARK  223  A    between atoms: _512  and  _513
REMARK  224  A    between atoms: _513  and  _514
REMARK  225  A    between atoms: _519  and  _521
REMARK  226  A    between atoms: _521  and  _522
REMARK  227  A    between atoms: _521  and  _524
REMARK  228  A    between atoms: _527  and  _529
REMARK  229  A    between atoms: _529  and  _530
REMARK  230  A    between atoms: _529  and  _532
REMARK  231  A    between atoms: _532  and  _533
REMARK  232  A    between atoms: _536  and  _538
REMARK  233  A    between atoms: _538  and  _539
REMARK  234  A    between atoms: _538  and  _541
REMARK  235  A    between atoms: _541  and  _542
REMARK  236  A    between atoms: _545  and  _547
REMARK  237  A    between atoms: _547  and  _548
REMARK  238  A    between atoms: _547  and  _550
REMARK  239  A    between atoms: _550  and  _551
REMARK  240  A    between atoms: _557  and  _559
REMARK  241  A    between atoms: _559  and  _560
REMARK  242  A    between atoms: _562  and  _564
REMARK  243  A    between atoms: _564  and  _565
REMARK  244  A    between atoms: _564  and  _567
REMARK  245  A    between atoms: _567  and  _568
REMARK  246  A    between atoms: _574  and  _576
REMARK  247  A    between atoms: _576  and  _577
REMARK  248  A    between atoms: _576  and  _579
REMARK  249  A    between atoms: _581  and  _583
REMARK  250  A    between atoms: _583  and  _584
REMARK  251  A    between atoms: _586  and  _588
REMARK  252  A    between atoms: _588  and  _589
REMARK  253  A    between atoms: _588  and  _591
REMARK  254  A    between atoms: _591  and  _592
REMARK  255  A    between atoms: _596  and  _597
REMARK  256  A    between atoms: _602  and  _604
REMARK  257  A    between atoms: _604  and  _605
REMARK  258  A    between atoms: _604  and  _607
REMARK  259  A    between atoms: _607  and  _608
REMARK  260  A    between atoms: _613  and  _614
REMARK  261  A    between atoms: _616  and  _618
REMARK  262  A    between atoms: _618  and  _619
REMARK  263  A    between atoms: _618  and  _621
REMARK  264  A    between atoms: _621  and  _622
REMARK  265  A    between atoms: _625  and  _627
REMARK  266  A    between atoms: _627  and  _628
REMARK  267  A    between atoms: _627  and  _630
REMARK  268  A    between atoms: _630  and  _631
REMARK  269  A    between atoms: _636  and  _638
REMARK  270  A    between atoms: _638  and  _639
REMARK  271  A    between atoms: _638  and  _641
REMARK  272  A    between atoms: _641  and  _642
REMARK  273  A    between atoms: _648  and  _650
REMARK  274  A    between atoms: _650  and  _651
REMARK  275  A    between atoms: _650  and  _653
REMARK  276  A    between atoms: _653  and  _654
REMARK  277  A    between atoms: _657  and  _659
REMARK  278  A    between atoms: _659  and  _660
REMARK  279  A    between atoms: _659  and  _662
REMARK  280  A    between atoms: _662  and  _663
REMARK  281  A    between atoms: _668  and  _669
REMARK  282  A    between atoms: _671  and  _673
REMARK  283  A    between atoms: _673  and  _674
REMARK  284  A    between atoms: _673  and  _676
REMARK  285  A    between atoms: _676  and  _677
REMARK  286  A    between atoms: _677  and  _678
REMARK                            x       y       z     vdW  Elec       q    Type
REMARK                         _______ _______ _______ _____ _____    ______ ____
ROOT
ATOM      1  CA  LYS A   1      41.556  14.871   1.894  0.00  0.00    +0.145 C 
ENDROOT
BRANCH   1   2
ATOM      2  C   LYS A   1      40.845  14.032   2.951  0.00  0.00    +0.238 C 
ATOM      3  O   LYS A   1      41.454  13.714   3.969  0.00  0.00    -0.274 OA
ATOM      4  N   VAL A   2      39.600  13.632   2.662  0.00  0.00    -0.298 N 
ATOM      5  H   VAL A   2      39.163  13.984   1.786  0.00  0.00    +0.150 HD
BRANCH   4   6
ATOM      6  CA  VAL A   2      38.811  12.719   3.517  0.00  0.00    +0.137 C 
BRANCH   6   7
ATOM      7  CB  VAL A   2      37.414  12.388   2.911  0.00  0.00    +0.026 C 
ATOM      8  CG2 VAL A   2      36.733  11.264   3.714  0.00  0.00    +0.002 C 
ATOM      9  CG1 VAL A   2      36.526  13.643   2.812  0.00  0.00    +0.002 C 
ENDBRANCH   6   7
BRANCH   6  10
ATOM     10  C   VAL A   2      39.569  11.411   3.765  0.00  0.00    +0.227 C 
ATOM     11  O   VAL A   2      39.733  11.007   4.920  0.00  0.00    -0.286 OA
ENDBRANCH   6  10
ENDBRANCH   4   6
ENDBRANCH   1   2
BRANCH   1  12
ATOM     12  N   LYS A   1      41.207  14.433   0.545  0.00  0.00    -0.238 NA
ATOM     13  H   LYS A   1      40.595  15.022  -0.054  0.00  0.00    +0.142 HD
ENDBRANCH   1  12
BRANCH   1  14
ATOM     14  CB  LYS A   1      41.331  16.367   2.087  0.00  0.00    +0.026 C 
BRANCH  14  15
ATOM     15  CG  LYS A   1      42.421  17.205   1.418  0.00  0.00    -0.000 C 
BRANCH  15  16
ATOM     16  CD  LYS A   1      42.082  18.698   1.397  0.00  0.00    -0.024 C 
BRANCH  16  17
ATOM     17  CE  LYS A   1      42.536  19.372   0.077  0.00  0.00    -0.086 C 
BRANCH  17  18
ATOM     18  NZ  LYS A   1      42.685  20.876   0.198  0.00  0.00    +0.380 N 
ATOM     19  HZ1 LYS A   1      43.395  21.095   0.925  0.00  0.00    -0.089 HD
ATOM     20  HZ2 LYS A   1      41.771  21.293   0.467  0.00  0.00    -0.089 HD
ATOM     21  HZ3 LYS A   1      42.990  21.268  -0.716  0.00  0.00    -0.089 HD
ENDBRANCH  17  18
ENDBRANCH  16  17
ENDBRANCH  15  16
ENDBRANCH  14  15
ENDBRANCH   1  14
TORSDOF 10
REMARK  Name = ../refined-set-2016/3bwj/3bwj_pocket.pdb
REMARK  286 active torsions:
REMARK  status: ('A' for Active; 'I' for Inactive)
REMARK    1  A    between atoms: _1  and  _3
REMARK    2  A    between atoms: _3  and  _4
REMARK    3  A    between atoms: _3  and  _6
REMARK    4  A    between atoms: _6  and  _7
REMARK    5  A    between atoms: _10  and  _12
REMARK    6  A    between atoms: _12  and  _13
REMARK    7  A    between atoms: _12  and  _15
REMARK    8  A    between atoms: _15  and  _16
REMARK    9  A    between atoms: _19  and  _21
REMARK   10  A    between atoms: _21  and  _22
REMARK   11  A    between atoms: _24  and  _26
REMARK   12  A    between atoms: _26  and  _27
REMARK   13  A    between atoms: _26  and  _29
REMARK   14  A    between atoms: _29  and  _30
REMARK   15  A    between atoms: _33  and  _35
REMARK   16  A    between atoms: _35  and  _36
REMARK   17  A    between atoms: _38  and  _40
REMARK   18  A    between atoms: _40  and  _41
REMARK   19  A    between atoms: _40  and  _43
REMARK   20  A    between atoms: _43  and  _44
REMARK   21  A    between atoms: _46  and  _48
REMARK   22  A    between atoms: _48  and  _49
REMARK   23  A    between atoms: _48  and  _51
REMARK   24  A    between atoms: _51  and  _52
REMARK   25  A    between atoms: _58  and  _60
REMARK   26  A    between atoms: _60  and  _61
REMARK   27  A    between atoms: _63  and  _65
REMARK   28  A    between atoms: _65  and  _66
REMARK   29  A    between atoms: _65  and  _68
REMARK   30  A    between atoms: _68  and  _69
REMARK   31  A    between atoms: _69  and  _70
REMARK   32  A    between atoms: _70  and  _71
REMARK   33  A    between atoms: _80  and  _82
REMARK   34  A    between atoms: _82  and  _83
REMARK   35  A    between atoms: _82  and  _85
REMARK   36  A    between atoms: _88  and  _90
REMARK   37  A    between atoms: _90  and  _91
REMARK   38  A    between atoms: _90  and  _93
REMARK   39  A    between atoms: _93  and  _94
REMARK   40  A    between atoms: _94  and  _95
REMARK   41  A    between atoms: _97  and  _99
REMARK   42  A    between atoms: _99  and  _100
REMARK   43  A    between atoms: _99  and  _102
REMARK   44  A    between atoms: _102  and  _103
REMARK   45  A    between atoms: _106  and  _108
REMARK   46  A    between atoms: _108  and  _109
REMARK   47  A    between atoms: _108  and  _111
REMARK   48  A    between atoms: _111  and  _112
REMARK   49  A    between atoms: _117  and  _118
REMARK   50  A    between atoms: _120  and  _122
REMARK   51  A    between atoms: _122  and  _123
REMARK   52  A    between atoms: _126  and  _128
REMARK   53  A    between atoms: _128  and  _129
REMARK   54  A    between atoms: _128  and  _131
REMARK   55  A    between atoms: _131  and  _132
REMARK   56  A    between atoms: _132  and  _133
REMARK   57  A    between atoms: _135  and  _137
REMARK   58  A    between atoms: _137  and  _138
REMARK   59  A    between atoms: _137  and  _140
REMARK   60  A    between atoms: _140  and  _141
REMARK   61  A    between atoms: _141  and  _142
REMARK   62  A    between atoms: _142  and  _143
REMARK   63  A    between atoms: _143  and  _144
REMARK   64  A    between atoms: _148  and  _150
REMARK   65  A    between atoms: _150  and  _151
REMARK   66  A    between atoms: _150  and  _153
REMARK   67  A    between atoms: _153  and  _154
REMARK   68  A    between atoms: _157  and  _159
REMARK   69  A    between atoms: _159  and  _160
REMARK   70  A    between atoms: _159  and  _162
REMARK   71  A    between atoms: _162  and  _163
REMARK   72  A    between atoms: _166  and  _168
REMARK   73  A    between atoms: _168  and  _169
REMARK   74  A    between atoms: _168  and  _171
REMARK   75  A    between atoms: _171  and  _172
REMARK   76  A    between atoms: _175  and  _177
REMARK   77  A    between atoms: _177  and  _178
REMARK   78  A    between atoms: _177  and  _180
REMARK   79  A    between atoms: _180  and  _181
REMARK   80  A    between atoms: _181  and  _182
REMARK   81  A    between atoms: _182  and  _183
REMARK   82  A    between atoms: _183  and  _184
REMARK   83  A    between atoms: _188  and  _190
REMARK   84  A    between atoms: _190  and  _191
REMARK   85  A    between atoms: _190  and  _193
REMARK   86  A    between atoms: _196  and  _198
REMARK   87  A    between atoms: _198  and  _199
REMARK   88  A    between atoms: _198  and  _201
REMARK   89  A    between atoms: _201  and  _202
REMARK   90  A    between atoms: _205  and  _207
REMARK   91  A    between atoms: _207  and  _208
REMARK   92  A    between atoms: _207  and  _210
REMARK   93  A    between atoms: _210  and  _211
REMARK   94  A    between atoms: _211  and  _212
REMARK   95  A    between atoms: _217  and  _219
REMARK   96  A    between atoms: _219  and  _220
REMARK   97  A    between atoms: _219  and  _222
REMARK   98  A    between atoms: _222  and  _223
REMARK   99  A    between atoms: _226  and  _228
REMARK  100  A    between atoms: _228  and  _229
REMARK  101  A    between atoms: _228  and  _231
REMARK  102  A    between atoms: _231  and  _232
REMARK  103  A    between atoms: _232  and  _233
REMARK  104  A    between atoms: _236  and  _238
REMARK  105  A    between atoms: _238  and  _239
REMARK  106  A    between atoms: _238  and  _241
REMARK  107  A    between atoms: _244  and  _246
REMARK  108  A    between atoms: _246  and  _247
REMARK  109  A    between atoms: _246  and  _249
REMARK  110  A    between atoms: _249  and  _250
REMARK  111  A    between atoms: _250  and  _251
REMARK  112  A    between atoms: _251  and  _252
REMARK  113  A    between atoms: _252  and  _253
REMARK  114  A    between atoms: _257  and  _259
REMARK  115  A    between atoms: _259  and  _260
REMARK  116  A    between atoms: _259  and  _262
REMARK  117  A    between atoms: _262  and  _263
REMARK  118  A    between atoms: _266  and  _268
REMARK  119  A    between atoms: _268  and  _269
REMARK  120  A    between atoms: _268  and  _271
REMARK  121  A    between atoms: _271  and  _272
REMARK  122  A    between atoms: _272  and  _273
REMARK  123  A    between atoms: _276  and  _278
REMARK  124  A    between atoms: _278  and  _279
REMARK  125  A    between atoms: _278  and  _281
REMARK  126  A    between atoms: _281  and  _282
REMARK  127  A    between atoms: _282  and  _283
REMARK  128  A    between atoms: _285  and  _287
REMARK  129  A    between atoms: _287  and  _288
REMARK  130  A    between atoms: _287  and  _290
REMARK  131  A    between atoms: _293  and  _295
REMARK  132  A    between atoms: _295  and  _296
REMARK  133  A    between atoms: _295  and  _298
REMARK  134  A    between atoms: _298  and  _299
REMARK  135  A    between atoms: _299  and  _300
REMARK  136  A    between atoms: _302  and  _304
REMARK  137  A    between atoms: _304  and  _305
REMARK  138  A    between atoms: _304  and  _307
REMARK  139  A    between atoms: _307  and  _308
REMARK  140  A    between atoms: _308  and  _309
REMARK  141  A    between atoms: _312  and  _314
REMARK  142  A    between atoms: _314  and  _315
REMARK  143  A    between atoms: _314  and  _317
REMARK  144  A    between atoms: _317  and  _318
REMARK  145  A    between atoms: _323  and  _324
REMARK  146  A    between atoms: _326  and  _328
REMARK  147  A    between atoms: _328  and  _329
REMARK  148  A    between atoms: _328  and  _331
REMARK  149  A    between atoms: _335  and  _336
REMARK  150  A    between atoms: _341  and  _343
REMARK  151  A    between atoms: _343  and  _344
REMARK  152  A    between atoms: _346  and  _348
REMARK  153  A    between atoms: _348  and  _349
REMARK  154  A    between atoms: _351  and  _353
REMARK  155  A    between atoms: _353  and  _354
REMARK  156  A    between atoms: _353  and  _356
REMARK  157  A    between atoms: _356  and  _357
REMARK  158  A    between atoms: _357  and  _358
REMARK  159  A    between atoms: _361  and  _363
REMARK  160  A    between atoms: _363  and  _364
REMARK  161  A    between atoms: _363  and  _366
REMARK  162  A    between atoms: _366  and  _367
REMARK  163  A    between atoms: _367  and  _368
REMARK  164  A    between atoms: _370  and  _372
REMARK  165  A    between atoms: _372  and  _373
REMARK  166  A    between atoms: _372  and  _375
REMARK  167  A    between atoms: _375  and  _376
REMARK  168  A    between atoms: _382  and  _384
REMARK  169  A    between atoms: _384  and  _385
REMARK  170  A    between atoms: _384  and  _387
REMARK  171  A    between atoms: _387  and  _388
REMARK  172  A    between atoms: _390  and  _392
REMARK  173  A    between atoms: _392  and  _393
REMARK  174  A    between atoms: _392  and  _395
REMARK  175  A    between atoms: _395  and  _396
REMARK  176  A    between atoms: _401  and  _402
REMARK  177  A    between atoms: _404  and  _406
REMARK  178  A    between atoms: _406  and  _407
REMARK  179  A    between atoms: _406  and  _409
REMARK  180  A    between atoms: _409  and  _410
REMARK  181  A    between atoms: _410  and  _411
REMARK  182  A    between atoms: _411  and  _412
REMARK  183  A    between atoms: _421  and  _423
REMARK  184  A    between atoms: _423  and  _424
REMARK  185  A    between atoms: _423  and  _426
REMARK  186  A    between atoms: _426  and  _427
REMARK  187  A    between atoms: _430  and  _432
REMARK  188  A    between atoms: _432  and  _433
REMARK  189  A    between atoms: _432  and  _435
REMARK  190  A    between atoms: _435  and  _436
REMARK  191  A    between atoms: _439  and  _441
REMARK  192  A    between atoms: _441  and  _442
REMARK  193  A    between atoms: _441  and  _444
REMARK  194  A    between atoms: _444  and  _445
REMARK  195  A    between atoms: _445  and  _446
REMARK  196  A    between atoms: _446  and  _447
REMARK  197  A    between atoms: _447  and  _448
REMARK  198  A    between atoms: _453  and  _454
REMARK  199  A    between atoms: _459  and  _461
REMARK  200  A    between atoms: _461  and  _462
REMARK  201  A    between atoms: _461  and  _464
REMARK  202  A    between atoms: _464  and  _465
REMARK  203  A    between atoms: _465  and  _466
REMARK  204  A    between atoms: _469  and  _471
REMARK  205  A    between atoms: _471  and  _472
REMARK  206  A    between atoms: _471  and  _474
REMARK  207  A    between atoms: _474  and  _475
REMARK  208  A    between atoms: _480  and  _482
REMARK  209  A    between atoms: _482  and  _483
REMARK  210  A    between atoms: _482  and  _485
REMARK  211  A    between atoms: _485  and  _486
REMARK  212  A    between atoms: _489  and  _491
REMARK  213  A    between atoms: _491  and  _492
REMARK  214  A    between atoms: _491  and  _494
REMARK  215  A    between atoms: _494  and  _495
REMARK  216  A    between atoms: _498  and  _500
REMARK  217  A    between atoms: _500  and  _501
REMARK  218  A    between atoms: _500  and  _503
REMARK  219  A    between atoms: _503  and  _504
REMARK  220  A    between atoms: _507  and  _509
REMARK  221  A    between atoms: _509  and  _510
REMARK  222  A    between atoms: _509  and  _512
REMARK  223  A    between atoms: _512  and  _513
REMARK  224  A    between atoms: _513  and  _514
REMARK  225  A    between atoms: _519  and  _521
REMARK  226  A    between atoms: _521  and  _522
REMARK  227  A    between atoms: _521  and  _524
REMARK  228  A    between atoms: _527  and  _529
REMARK  229  A    between atoms: _529  and  _530
REMARK  230  A    between atoms: _529  and  _532
REMARK  231  A    between atoms: _532  and  _533
REMARK  232  A    between atoms: _536  and  _538
REMARK  233  A    between atoms: _538  and  _539
REMARK  234  A    between atoms: _538  and  _541
REMARK  235  A    between atoms: _541  and  _542
REMARK  236  A    between atoms: _545  and  _547
REMARK  237  A    between atoms: _547  and  _548
REMARK  238  A    between atoms: _547  and  _550
REMARK  239  A    between atoms: _550  and  _551
REMARK  240  A    between atoms: _557  and  _559
REMARK  241  A    between atoms: _559  and  _560
REMARK  242  A    between atoms: _562  and  _564
REMARK  243  A    between atoms: _564  and  _565
REMARK  244  A    between atoms: _564  and  _567
REMARK  245  A    between atoms: _567  and  _568
REMARK  246  A    between atoms: _574  and  _576
REMARK  247  A    between atoms: _576  and  _577
REMARK  248  A    between atoms: _576  and  _579
REMARK  249  A    between atoms: _581  and  _583
REMARK  250  A    between atoms: _583  and  _584
REMARK  251  A    between atoms: _586  and  _588
REMARK  252  A    between atoms: _588  and  _589
REMARK  253  A    between atoms: _588  and  _591
REMARK  254  A    between atoms: _591  and  _592
REMARK  255  A    between atoms: _596  and  _597
REMARK  256  A    between atoms: _602  and  _604
REMARK  257  A    between atoms: _604  and  _605
REMARK  258  A    between atoms: _604  and  _607
REMARK  259  A    between atoms: _607  and  _608
REMARK  260  A    between atoms: _613  and  _614
REMARK  261  A    between atoms: _616  and  _618
REMARK  262  A    between atoms: _618  and  _619
REMARK  263  A    between atoms: _618  and  _621
REMARK  264  A    between atoms: _621  and  _622
REMARK  265  A    between atoms: _625  and  _627
REMARK  266  A    between atoms: _627  and  _628
REMARK  267  A    between atoms: _627  and  _630
REMARK  268  A    between atoms: _630  and  _631
REMARK  269  A    between atoms: _636  and  _638
REMARK  270  A    between atoms: _638  and  _639
REMARK  271  A    between atoms: _638  and  _641
REMARK  272  A    between atoms: _641  and  _642
REMARK  273  A    between atoms: _648  and  _650
REMARK  274  A    between atoms: _650  and  _651
REMARK  275  A    between atoms: _650  and  _653
REMARK  276  A    between atoms: _653  and  _654
REMARK  277  A    between atoms: _657  and  _659
REMARK  278  A    between atoms: _659  and  _660
REMARK  279  A    between atoms: _659  and  _662
REMARK  280  A    between atoms: _662  and  _663
REMARK  281  A    between atoms: _668  and  _669
REMARK  282  A    between atoms: _671  and  _673
REMARK  283  A    between atoms: _673  and  _674
REMARK  284  A    between atoms: _673  and  _676
REMARK  285  A    between atoms: _676  and  _677
REMARK  286  A    between atoms: _677  and  _678
REMARK                            x       y       z     vdW  Elec       q    Type
REMARK                         _______ _______ _______ _____ _____    ______ ____
ROOT
ATOM      1  CA  LEU A   1      42.608  12.417   7.178  0.00  0.00    +0.133 C 
ENDROOT
BRANCH   1   2
ATOM      2  N   LEU A   1      42.843  11.989   5.801  0.00  0.00    -0.239 NA
ATOM      3  H   LEU A   1      42.142  12.217   5.067  0.00  0.00    +0.142 HD
ENDBRANCH   1   2
BRANCH   1   4
ATOM      4  C   LEU A   1      41.854  11.338   7.928  0.00  0.00    +0.224 C 
ATOM      5  O   LEU A   1      41.469  11.496   9.098  0.00  0.00    -0.287 OA
ENDBRANCH   1   4
BRANCH   1   6
ATOM      6  CB  LEU A   1      41.922  13.803   7.248  0.00  0.00    +0.025 C 
BRANCH   6   7
ATOM      7  CG  LEU A   1      42.725  15.023   6.778  0.00  0.00    +0.002 C 
ATOM      8  CD2 LEU A   1      44.119  15.024   7.391  0.00  0.00    +0.000 C 
ATOM      9  CD1 LEU A   1      42.007  16.310   7.134  0.00  0.00    +0.000 C 
ENDBRANCH   6   7
ENDBRANCH   1   6
TORSDOF 4
REMARK  Name = ../refined-set-2016/3bwj/3bwj_pocket.pdb
REMARK  286 active torsions:
REMARK  status: ('A' for Active; 'I' for Inactive)
REMARK    1  A    between atoms: _1  and  _3
REMARK    2  A    between atoms: _3  and  _4
REMARK    3  A    between atoms: _3  and  _6
REMARK    4  A    between atoms: _6  and  _7
REMARK    5  A    between atoms: _10  and  _12
REMARK    6  A    between atoms: _12  and  _13
REMARK    7  A    between atoms: _12  and  _15
REMARK    8  A    between atoms: _15  and  _16
REMARK    9  A    between atoms: _19  and  _21
REMARK   10  A    between atoms: _21  and  _22
REMARK   11  A    between atoms: _24  and  _26
REMARK   12  A    between atoms: _26  and  _27
REMARK   13  A    between atoms: _26  and  _29
REMARK   14  A    between atoms: _29  and  _30
REMARK   15  A    between atoms: _33  and  _35
REMARK   16  A    between atoms: _35  and  _36
REMARK   17  A    between atoms: _38  and  _40
REMARK   18  A    between atoms: _40  and  _41
REMARK   19  A    between atoms: _40  and  _43
REMARK   20  A    between atoms: _43  and  _44
REMARK   21  A    between atoms: _46  and  _48
REMARK   22  A    between atoms: _48  and  _49
REMARK   23  A    between atoms: _48  and  _51
REMARK   24  A    between atoms: _51  and  _52
REMARK   25  A    between atoms: _58  and  _60
REMARK   26  A    between atoms: _60  and  _61
REMARK   27  A    between atoms: _63  and  _65
REMARK   28  A    between atoms: _65  and  _66
REMARK   29  A    between atoms: _65  and  _68
REMARK   30  A    between atoms: _68  and  _69
REMARK   31  A    between atoms: _69  and  _70
REMARK   32  A    between atoms: _70  and  _71
REMARK   33  A    between atoms: _80  and  _82
REMARK   34  A    between atoms: _82  and  _83
REMARK   35  A    between atoms: _82  and  _85
REMARK   36  A    between atoms: _88  and  _90
REMARK   37  A    between atoms: _90  and  _91
REMARK   38  A    between atoms: _90  and  _93
REMARK   39  A    between atoms: _93  and  _94
REMARK   40  A    between atoms: _94  and  _95
REMARK   41  A    between atoms: _97  and  _99
REMARK   42  A    between atoms: _99  and  _100
REMARK   43  A    between atoms: _99  and  _102
REMARK   44  A    between atoms: _102  and  _103
REMARK   45  A    between atoms: _106  and  _108
REMARK   46  A    between atoms: _108  and  _109
REMARK   47  A    between atoms: _108  and  _111
REMARK   48  A    between atoms: _111  and  _112
REMARK   49  A    between atoms: _117  and  _118
REMARK   50  A    between atoms: _120  and  _122
REMARK   51  A    between atoms: _122  and  _123
REMARK   52  A    between atoms: _126  and  _128
REMARK   53  A    between atoms: _128  and  _129
REMARK   54  A    between atoms: _128  and  _131
REMARK   55  A    between atoms: _131  and  _132
REMARK   56  A    between atoms: _132  and  _133
REMARK   57  A    between atoms: _135  and  _137
REMARK   58  A    between atoms: _137  and  _138
REMARK   59  A    between atoms: _137  and  _140
REMARK   60  A    between atoms: _140  and  _141
REMARK   61  A    between atoms: _141  and  _142
REMARK   62  A    between atoms: _142  and  _143
REMARK   63  A    between atoms: _143  and  _144
REMARK   64  A    between atoms: _148  and  _150
REMARK   65  A    between atoms: _150  and  _151
REMARK   66  A    between atoms: _150  and  _153
REMARK   67  A    between atoms: _153  and  _154
REMARK   68  A    between atoms: _157  and  _159
REMARK   69  A    between atoms: _159  and  _160
REMARK   70  A    between atoms: _159  and  _162
REMARK   71  A    between atoms: _162  and  _163
REMARK   72  A    between atoms: _166  and  _168
REMARK   73  A    between atoms: _168  and  _169
REMARK   74  A    between atoms: _168  and  _171
REMARK   75  A    between atoms: _171  and  _172
REMARK   76  A    between atoms: _175  and  _177
REMARK   77  A    between atoms: _177  and  _178
REMARK   78  A    between atoms: _177  and  _180
REMARK   79  A    between atoms: _180  and  _181
REMARK   80  A    between atoms: _181  and  _182
REMARK   81  A    between atoms: _182  and  _183
REMARK   82  A    between atoms: _183  and  _184
REMARK   83  A    between atoms: _188  and  _190
REMARK   84  A    between atoms: _190  and  _191
REMARK   85  A    between atoms: _190  and  _193
REMARK   86  A    between atoms: _196  and  _198
REMARK   87  A    between atoms: _198  and  _199
REMARK   88  A    between atoms: _198  and  _201
REMARK   89  A    between atoms: _201  and  _202
REMARK   90  A    between atoms: _205  and  _207
REMARK   91  A    between atoms: _207  and  _208
REMARK   92  A    between atoms: _207  and  _210
REMARK   93  A    between atoms: _210  and  _211
REMARK   94  A    between atoms: _211  and  _212
REMARK   95  A    between atoms: _217  and  _219
REMARK   96  A    between atoms: _219  and  _220
REMARK   97  A    between atoms: _219  and  _222
REMARK   98  A    between atoms: _222  and  _223
REMARK   99  A    between atoms: _226  and  _228
REMARK  100  A    between atoms: _228  and  _229
REMARK  101  A    between atoms: _228  and  _231
REMARK  102  A    between atoms: _231  and  _232
REMARK  103  A    between atoms: _232  and  _233
REMARK  104  A    between atoms: _236  and  _238
REMARK  105  A    between atoms: _238  and  _239
REMARK  106  A    between atoms: _238  and  _241
REMARK  107  A    between atoms: _244  and  _246
REMARK  108  A    between atoms: _246  and  _247
REMARK  109  A    between atoms: _246  and  _249
REMARK  110  A    between atoms: _249  and  _250
REMARK  111  A    between atoms: _250  and  _251
REMARK  112  A    between atoms: _251  and  _252
REMARK  113  A    between atoms: _252  and  _253
REMARK  114  A    between atoms: _257  and  _259
REMARK  115  A    between atoms: _259  and  _260
REMARK  116  A    between atoms: _259  and  _262
REMARK  117  A    between atoms: _262  and  _263
REMARK  118  A    between atoms: _266  and  _268
REMARK  119  A    between atoms: _268  and  _269
REMARK  120  A    between atoms: _268  and  _271
REMARK  121  A    between atoms: _271  and  _272
REMARK  122  A    between atoms: _272  and  _273
REMARK  123  A    between atoms: _276  and  _278
REMARK  124  A    between atoms: _278  and  _279
REMARK  125  A    between atoms: _278  and  _281
REMARK  126  A    between atoms: _281  and  _282
REMARK  127  A    between atoms: _282  and  _283
REMARK  128  A    between atoms: _285  and  _287
REMARK  129  A    between atoms: _287  and  _288
REMARK  130  A    between atoms: _287  and  _290
REMARK  131  A    between atoms: _293  and  _295
REMARK  132  A    between atoms: _295  and  _296
REMARK  133  A    between atoms: _295  and  _298
REMARK  134  A    between atoms: _298  and  _299
REMARK  135  A    between atoms: _299  and  _300
REMARK  136  A    between atoms: _302  and  _304
REMARK  137  A    between atoms: _304  and  _305
REMARK  138  A    between atoms: _304  and  _307
REMARK  139  A    between atoms: _307  and  _308
REMARK  140  A    between atoms: _308  and  _309
REMARK  141  A    between atoms: _312  and  _314
REMARK  142  A    between atoms: _314  and  _315
REMARK  143  A    between atoms: _314  and  _317
REMARK  144  A    between atoms: _317  and  _318
REMARK  145  A    between atoms: _323  and  _324
REMARK  146  A    between atoms: _326  and  _328
REMARK  147  A    between atoms: _328  and  _329
REMARK  148  A    between atoms: _328  and  _331
REMARK  149  A    between atoms: _335  and  _336
REMARK  150  A    between atoms: _341  and  _343
REMARK  151  A    between atoms: _343  and  _344
REMARK  152  A    between atoms: _346  and  _348
REMARK  153  A    between atoms: _348  and  _349
REMARK  154  A    between atoms: _351  and  _353
REMARK  155  A    between atoms: _353  and  _354
REMARK  156  A    between atoms: _353  and  _356
REMARK  157  A    between atoms: _356  and  _357
REMARK  158  A    between atoms: _357  and  _358
REMARK  159  A    between atoms: _361  and  _363
REMARK  160  A    between atoms: _363  and  _364
REMARK  161  A    between atoms: _363  and  _366
REMARK  162  A    between atoms: _366  and  _367
REMARK  163  A    between atoms: _367  and  _368
REMARK  164  A    between atoms: _370  and  _372
REMARK  165  A    between atoms: _372  and  _373
REMARK  166  A    between atoms: _372  and  _375
REMARK  167  A    between atoms: _375  and  _376
REMARK  168  A    between atoms: _382  and  _384
REMARK  169  A    between atoms: _384  and  _385
REMARK  170  A    between atoms: _384  and  _387
REMARK  171  A    between atoms: _387  and  _388
REMARK  172  A    between atoms: _390  and  _392
REMARK  173  A    between atoms: _392  and  _393
REMARK  174  A    between atoms: _392  and  _395
REMARK  175  A    between atoms: _395  and  _396
REMARK  176  A    between atoms: _401  and  _402
REMARK  177  A    between atoms: _404  and  _406
REMARK  178  A    between atoms: _406  and  _407
REMARK  179  A    between atoms: _406  and  _409
REMARK  180  A    between atoms: _409  and  _410
REMARK  181  A    between atoms: _410  and  _411
REMARK  182  A    between atoms: _411  and  _412
REMARK  183  A    between atoms: _421  and  _423
REMARK  184  A    between atoms: _423  and  _424
REMARK  185  A    between atoms: _423  and  _426
REMARK  186  A    between atoms: _426  and  _427
REMARK  187  A    between atoms: _430  and  _432
REMARK  188  A    between atoms: _432  and  _433
REMARK  189  A    between atoms: _432  and  _435
REMARK  190  A    between atoms: _435  and  _436
REMARK  191  A    between atoms: _439  and  _441
REMARK  192  A    between atoms: _441  and  _442
REMARK  193  A    between atoms: _441  and  _444
REMARK  194  A    between atoms: _444  and  _445
REMARK  195  A    between atoms: _445  and  _446
REMARK  196  A    between atoms: _446  and  _447
REMARK  197  A    between atoms: _447  and  _448
REMARK  198  A    between atoms: _453  and  _454
REMARK  199  A    between atoms: _459  and  _461
REMARK  200  A    between atoms: _461  and  _462
REMARK  201  A    between atoms: _461  and  _464
REMARK  202  A    between atoms: _464  and  _465
REMARK  203  A    between atoms: _465  and  _466
REMARK  204  A    between atoms: _469  and  _471
REMARK  205  A    between atoms: _471  and  _472
REMARK  206  A    between atoms: _471  and  _474
REMARK  207  A    between atoms: _474  and  _475
REMARK  208  A    between atoms: _480  and  _482
REMARK  209  A    between atoms: _482  and  _483
REMARK  210  A    between atoms: _482  and  _485
REMARK  211  A    between atoms: _485  and  _486
REMARK  212  A    between atoms: _489  and  _491
REMARK  213  A    between atoms: _491  and  _492
REMARK  214  A    between atoms: _491  and  _494
REMARK  215  A    between atoms: _494  and  _495
REMARK  216  A    between atoms: _498  and  _500
REMARK  217  A    between atoms: _500  and  _501
REMARK  218  A    between atoms: _500  and  _503
REMARK  219  A    between atoms: _503  and  _504
REMARK  220  A    between atoms: _507  and  _509
REMARK  221  A    between atoms: _509  and  _510
REMARK  222  A    between atoms: _509  and  _512
REMARK  223  A    between atoms: _512  and  _513
REMARK  224  A    between atoms: _513  and  _514
REMARK  225  A    between atoms: _519  and  _521
REMARK  226  A    between atoms: _521  and  _522
REMARK  227  A    between atoms: _521  and  _524
REMARK  228  A    between atoms: _527  and  _529
REMARK  229  A    between atoms: _529  and  _530
REMARK  230  A    between atoms: _529  and  _532
REMARK  231  A    between atoms: _532  and  _533
REMARK  232  A    between atoms: _536  and  _538
REMARK  233  A    between atoms: _538  and  _539
REMARK  234  A    between atoms: _538  and  _541
REMARK  235  A    between atoms: _541  and  _542
REMARK  236  A    between atoms: _545  and  _547
REMARK  237  A    between atoms: _547  and  _548
REMARK  238  A    between atoms: _547  and  _550
REMARK  239  A    between atoms: _550  and  _551
REMARK  240  A    between atoms: _557  and  _559
REMARK  241  A    between atoms: _559  and  _560
REMARK  242  A    between atoms: _562  and  _564
REMARK  243  A    between atoms: _564  and  _565
REMARK  244  A    between atoms: _564  and  _567
REMARK  245  A    between atoms: _567  and  _568
REMARK  246  A    between atoms: _574  and  _576
REMARK  247  A    between atoms: _576  and  _577
REMARK  248  A    between atoms: _576  and  _579
REMARK  249  A    between atoms: _581  and  _583
REMARK  250  A    between atoms: _583  and  _584
REMARK  251  A    between atoms: _586  and  _588
REMARK  252  A    between atoms: _588  and  _589
REMARK  253  A    between atoms: _588  and  _591
REMARK  254  A    between atoms: _591  and  _592
REMARK  255  A    between atoms: _596  and  _597
REMARK  256  A    between atoms: _602  and  _604
REMARK  257  A    between atoms: _604  and  _605
REMARK  258  A    between atoms: _604  and  _607
REMARK  259  A    between atoms: _607  and  _608
REMARK  260  A    between atoms: _613  and  _614
REMARK  261  A    between atoms: _616  and  _618
REMARK  262  A    between atoms: _618  and  _619
REMARK  263  A    between atoms: _618  and  _621
REMARK  264  A    between atoms: _621  and  _622
REMARK  265  A    between atoms: _625  and  _627
REMARK  266  A    between atoms: _627  and  _628
REMARK  267  A    between atoms: _627  and  _630
REMARK  268  A    between atoms: _630  and  _631
REMARK  269  A    between atoms: _636  and  _638
REMARK  270  A    between atoms: _638  and  _639
REMARK  271  A    between atoms: _638  and  _641
REMARK  272  A    between atoms: _641  and  _642
REMARK  273  A    between atoms: _648  and  _650
REMARK  274  A    between atoms: _650  and  _651
REMARK  275  A    between atoms: _650  and  _653
REMARK  276  A    between atoms: _653  and  _654
REMARK  277  A    between atoms: _657  and  _659
REMARK  278  A    between atoms: _659  and  _660
REMARK  279  A    between atoms: _659  and  _662
REMARK  280  A    between atoms: _662  and  _663
REMARK  281  A    between atoms: _668  and  _669
REMARK  282  A    between atoms: _671  and  _673
REMARK  283  A    between atoms: _673  and  _674
REMARK  284  A    between atoms: _673  and  _676
REMARK  285  A    between atoms: _676  and  _677
REMARK  286  A    between atoms: _677  and  _678
REMARK                            x       y       z     vdW  Elec       q    Type
REMARK                         _______ _______ _______ _____ _____    ______ ____
ROOT
ATOM      1  CB  GLN A   1      37.283  11.760   7.779  0.00  0.00    +0.035 C 
ENDROOT
BRANCH   1   2
ATOM      2  CA  GLN A   1      37.475  10.230   7.638  0.00  0.00    +0.134 C 
BRANCH   2   3
ATOM      3  N   GLN A   1      38.871   9.924   7.340  0.00  0.00    -0.239 NA
ATOM      4  H   GLN A   1      39.278  10.228   6.432  0.00  0.00    +0.142 HD
ENDBRANCH   2   3
BRANCH   2   5
ATOM      5  C   GLN A   1      36.431   9.613   6.682  0.00  0.00    +0.224 C 
ATOM      6  O   GLN A   1      35.306  10.110   6.598  0.00  0.00    -0.287 OA
ENDBRANCH   2   5
ENDBRANCH   1   2
BRANCH   1   7
ATOM      7  CG  GLN A   1      38.198  12.417   8.794  0.00  0.00    +0.087 C 
BRANCH   7   8
ATOM      8  CD  GLN A   1      37.913  11.940  10.169  0.00  0.00    +0.219 C 
ATOM      9  NE2 GLN A   1      38.951  11.543  10.911  0.00  0.00    -0.329 N 
ATOM     10 HE21 GLN A   1      38.796  11.194  11.878  0.00  0.00    +0.145 HD
ATOM     11 HE22 GLN A   1      39.914  11.583  10.521  0.00  0.00    +0.145 HD
ATOM     12  OE1 GLN A   1      36.774  11.915  10.572  0.00  0.00    -0.275 OA
ENDBRANCH   7   8
ENDBRANCH   1   7
TORSDOF 5
REMARK  Name = ../refined-set-2016/3bwj/3bwj_pocket.pdb
REMARK  286 active torsions:
REMARK  status: ('A' for Active; 'I' for Inactive)
REMARK    1  A    between atoms: _1  and  _3
REMARK    2  A    between atoms: _3  and  _4
REMARK    3  A    between atoms: _3  and  _6
REMARK    4  A    between atoms: _6  and  _7
REMARK    5  A    between atoms: _10  and  _12
REMARK    6  A    between atoms: _12  and  _13
REMARK    7  A    between atoms: _12  and  _15
REMARK    8  A    between atoms: _15  and  _16
REMARK    9  A    between atoms: _19  and  _21
REMARK   10  A    between atoms: _21  and  _22
REMARK   11  A    between atoms: _24  and  _26
REMARK   12  A    between atoms: _26  and  _27
REMARK   13  A    between atoms: _26  and  _29
REMARK   14  A    between atoms: _29  and  _30
REMARK   15  A    between atoms: _33  and  _35
REMARK   16  A    between atoms: _35  and  _36
REMARK   17  A    between atoms: _38  and  _40
REMARK   18  A    between atoms: _40  and  _41
REMARK   19  A    between atoms: _40  and  _43
REMARK   20  A    between atoms: _43  and  _44
REMARK   21  A    between atoms: _46  and  _48
REMARK   22  A    between atoms: _48  and  _49
REMARK   23  A    between atoms: _48  and  _51
REMARK   24  A    between atoms: _51  and  _52
REMARK   25  A    between atoms: _58  and  _60
REMARK   26  A    between atoms: _60  and  _61
REMARK   27  A    between atoms: _63  and  _65
REMARK   28  A    between atoms: _65  and  _66
REMARK   29  A    between atoms: _65  and  _68
REMARK   30  A    between atoms: _68  and  _69
REMARK   31  A    between atoms: _69  and  _70
REMARK   32  A    between atoms: _70  and  _71
REMARK   33  A    between atoms: _80  and  _82
REMARK   34  A    between atoms: _82  and  _83
REMARK   35  A    between atoms: _82  and  _85
REMARK   36  A    between atoms: _88  and  _90
REMARK   37  A    between atoms: _90  and  _91
REMARK   38  A    between atoms: _90  and  _93
REMARK   39  A    between atoms: _93  and  _94
REMARK   40  A    between atoms: _94  and  _95
REMARK   41  A    between atoms: _97  and  _99
REMARK   42  A    between atoms: _99  and  _100
REMARK   43  A    between atoms: _99  and  _102
REMARK   44  A    between atoms: _102  and  _103
REMARK   45  A    between atoms: _106  and  _108
REMARK   46  A    between atoms: _108  and  _109
REMARK   47  A    between atoms: _108  and  _111
REMARK   48  A    between atoms: _111  and  _112
REMARK   49  A    between atoms: _117  and  _118
REMARK   50  A    between atoms: _120  and  _122
REMARK   51  A    between atoms: _122  and  _123
REMARK   52  A    between atoms: _126  and  _128
REMARK   53  A    between atoms: _128  and  _129
REMARK   54  A    between atoms: _128  and  _131
REMARK   55  A    between atoms: _131  and  _132
REMARK   56  A    between atoms: _132  and  _133
REMARK   57  A    between atoms: _135  and  _137
REMARK   58  A    between atoms: _137  and  _138
REMARK   59  A    between atoms: _137  and  _140
REMARK   60  A    between atoms: _140  and  _141
REMARK   61  A    between atoms: _141  and  _142
REMARK   62  A    between atoms: _142  and  _143
REMARK   63  A    between atoms: _143  and  _144
REMARK   64  A    between atoms: _148  and  _150
REMARK   65  A    between atoms: _150  and  _151
REMARK   66  A    between atoms: _150  and  _153
REMARK   67  A    between atoms: _153  and  _154
REMARK   68  A    between atoms: _157  and  _159
REMARK   69  A    between atoms: _159  and  _160
REMARK   70  A    between atoms: _159  and  _162
REMARK   71  A    between atoms: _162  and  _163
REMARK   72  A    between atoms: _166  and  _168
REMARK   73  A    between atoms: _168  and  _169
REMARK   74  A    between atoms: _168  and  _171
REMARK   75  A    between atoms: _171  and  _172
REMARK   76  A    between atoms: _175  and  _177
REMARK   77  A    between atoms: _177  and  _178
REMARK   78  A    between atoms: _177  and  _180
REMARK   79  A    between atoms: _180  and  _181
REMARK   80  A    between atoms: _181  and  _182
REMARK   81  A    between atoms: _182  and  _183
REMARK   82  A    between atoms: _183  and  _184
REMARK   83  A    between atoms: _188  and  _190
REMARK   84  A    between atoms: _190  and  _191
REMARK   85  A    between atoms: _190  and  _193
REMARK   86  A    between atoms: _196  and  _198
REMARK   87  A    between atoms: _198  and  _199
REMARK   88  A    between atoms: _198  and  _201
REMARK   89  A    between atoms: _201  and  _202
REMARK   90  A    between atoms: _205  and  _207
REMARK   91  A    between atoms: _207  and  _208
REMARK   92  A    between atoms: _207  and  _210
REMARK   93  A    between atoms: _210  and  _211
REMARK   94  A    between atoms: _211  and  _212
REMARK   95  A    between atoms: _217  and  _219
REMARK   96  A    between atoms: _219  and  _220
REMARK   97  A    between atoms: _219  and  _222
REMARK   98  A    between atoms: _222  and  _223
REMARK   99  A    between atoms: _226  and  _228
REMARK  100  A    between atoms: _228  and  _229
REMARK  101  A    between atoms: _228  and  _231
REMARK  102  A    between atoms: _231  and  _232
REMARK  103  A    between atoms: _232  and  _233
REMARK  104  A    between atoms: _236  and  _238
REMARK  105  A    between atoms: _238  and  _239
REMARK  106  A    between atoms: _238  and  _241
REMARK  107  A    between atoms: _244  and  _246
REMARK  108  A    between atoms: _246  and  _247
REMARK  109  A    between atoms: _246  and  _249
REMARK  110  A    between atoms: _249  and  _250
REMARK  111  A    between atoms: _250  and  _251
REMARK  112  A    between atoms: _251  and  _252
REMARK  113  A    between atoms: _252  and  _253
REMARK  114  A    between atoms: _257  and  _259
REMARK  115  A    between atoms: _259  and  _260
REMARK  116  A    between atoms: _259  and  _262
REMARK  117  A    between atoms: _262  and  _263
REMARK  118  A    between atoms: _266  and  _268
REMARK  119  A    between atoms: _268  and  _269
REMARK  120  A    between atoms: _268  and  _271
REMARK  121  A    between atoms: _271  and  _272
REMARK  122  A    between atoms: _272  and  _273
REMARK  123  A    between atoms: _276  and  _278
REMARK  124  A    between atoms: _278  and  _279
REMARK  125  A    between atoms: _278  and  _281
REMARK  126  A    between atoms: _281  and  _282
REMARK  127  A    between atoms: _282  and  _283
REMARK  128  A    between atoms: _285  and  _287
REMARK  129  A    between atoms: _287  and  _288
REMARK  130  A    between atoms: _287  and  _290
REMARK  131  A    between atoms: _293  and  _295
REMARK  132  A    between atoms: _295  and  _296
REMARK  133  A    between atoms: _295  and  _298
REMARK  134  A    between atoms: _298  and  _299
REMARK  135  A    between atoms: _299  and  _300
REMARK  136  A    between atoms: _302  and  _304
REMARK  137  A    between atoms: _304  and  _305
REMARK  138  A    between atoms: _304  and  _307
REMARK  139  A    between atoms: _307  and  _308
REMARK  140  A    between atoms: _308  and  _309
REMARK  141  A    between atoms: _312  and  _314
REMARK  142  A    between atoms: _314  and  _315
REMARK  143  A    between atoms: _314  and  _317
REMARK  144  A    between atoms: _317  and  _318
REMARK  145  A    between atoms: _323  and  _324
REMARK  146  A    between atoms: _326  and  _328
REMARK  147  A    between atoms: _328  and  _329
REMARK  148  A    between atoms: _328  and  _331
REMARK  149  A    between atoms: _335  and  _336
REMARK  150  A    between atoms: _341  and  _343
REMARK  151  A    between atoms: _343  and  _344
REMARK  152  A    between atoms: _346  and  _348
REMARK  153  A    between atoms: _348  and  _349
REMARK  154  A    between atoms: _351  and  _353
REMARK  155  A    between atoms: _353  and  _354
REMARK  156  A    between atoms: _353  and  _356
REMARK  157  A    between atoms: _356  and  _357
REMARK  158  A    between atoms: _357  and  _358
REMARK  159  A    between atoms: _361  and  _363
REMARK  160  A    between atoms: _363  and  _364
REMARK  161  A    between atoms: _363  and  _366
REMARK  162  A    between atoms: _366  and  _367
REMARK  163  A    between atoms: _367  and  _368
REMARK  164  A    between atoms: _370  and  _372
REMARK  165  A    between atoms: _372  and  _373
REMARK  166  A    between atoms: _372  and  _375
REMARK  167  A    between atoms: _375  and  _376
REMARK  168  A    between atoms: _382  and  _384
REMARK  169  A    between atoms: _384  and  _385
REMARK  170  A    between atoms: _384  and  _387
REMARK  171  A    between atoms: _387  and  _388
REMARK  172  A    between atoms: _390  and  _392
REMARK  173  A    between atoms: _392  and  _393
REMARK  174  A    between atoms: _392  and  _395
REMARK  175  A    between atoms: _395  and  _396
REMARK  176  A    between atoms: _401  and  _402
REMARK  177  A    between atoms: _404  and  _406
REMARK  178  A    between atoms: _406  and  _407
REMARK  179  A    between atoms: _406  and  _409
REMARK  180  A    between atoms: _409  and  _410
REMARK  181  A    between atoms: _410  and  _411
REMARK  182  A    between atoms: _411  and  _412
REMARK  183  A    between atoms: _421  and  _423
REMARK  184  A    between atoms: _423  and  _424
REMARK  185  A    between atoms: _423  and  _426
REMARK  186  A    between atoms: _426  and  _427
REMARK  187  A    between atoms: _430  and  _432
REMARK  188  A    between atoms: _432  and  _433
REMARK  189  A    between atoms: _432  and  _435
REMARK  190  A    between atoms: _435  and  _436
REMARK  191  A    between atoms: _439  and  _441
REMARK  192  A    between atoms: _441  and  _442
REMARK  193  A    between atoms: _441  and  _444
REMARK  194  A    between atoms: _444  and  _445
REMARK  195  A    between atoms: _445  and  _446
REMARK  196  A    between atoms: _446  and  _447
REMARK  197  A    between atoms: _447  and  _448
REMARK  198  A    between atoms: _453  and  _454
REMARK  199  A    between atoms: _459  and  _461
REMARK  200  A    between atoms: _461  and  _462
REMARK  201  A    between atoms: _461  and  _464
REMARK  202  A    between atoms: _464  and  _465
REMARK  203  A    between atoms: _465  and  _466
REMARK  204  A    between atoms: _469  and  _471
REMARK  205  A    between atoms: _471  and  _472
REMARK  206  A    between atoms: _471  and  _474
REMARK  207  A    between atoms: _474  and  _475
REMARK  208  A    between atoms: _480  and  _482
REMARK  209  A    between atoms: _482  and  _483
REMARK  210  A    between atoms: _482  and  _485
REMARK  211  A    between atoms: _485  and  _486
REMARK  212  A    between atoms: _489  and  _491
REMARK  213  A    between atoms: _491  and  _492
REMARK  214  A    between atoms: _491  and  _494
REMARK  215  A    between atoms: _494  and  _495
REMARK  216  A    between atoms: _498  and  _500
REMARK  217  A    between atoms: _500  and  _501
REMARK  218  A    between atoms: _500  and  _503
REMARK  219  A    between atoms: _503  and  _504
REMARK  220  A    between atoms: _507  and  _509
REMARK  221  A    between atoms: _509  and  _510
REMARK  222  A    between atoms: _509  and  _512
REMARK  223  A    between atoms: _512  and  _513
REMARK  224  A    between atoms: _513  and  _514
REMARK  225  A    between atoms: _519  and  _521
REMARK  226  A    between atoms: _521  and  _522
REMARK  227  A    between atoms: _521  and  _524
REMARK  228  A    between atoms: _527  and  _529
REMARK  229  A    between atoms: _529  and  _530
REMARK  230  A    between atoms: _529  and  _532
REMARK  231  A    between atoms: _532  and  _533
REMARK  232  A    between atoms: _536  and  _538
REMARK  233  A    between atoms: _538  and  _539
REMARK  234  A    between atoms: _538  and  _541
REMARK  235  A    between atoms: _541  and  _542
REMARK  236  A    between atoms: _545  and  _547
REMARK  237  A    between atoms: _547  and  _548
REMARK  238  A    between atoms: _547  and  _550
REMARK  239  A    between atoms: _550  and  _551
REMARK  240  A    between atoms: _557  and  _559
REMARK  241  A    between atoms: _559  and  _560
REMARK  242  A    between atoms: _562  and  _564
REMARK  243  A    between atoms: _564  and  _565
REMARK  244  A    between atoms: _564  and  _567
REMARK  245  A    between atoms: _567  and  _568
REMARK  246  A    between atoms: _574  and  _576
REMARK  247  A    between atoms: _576  and  _577
REMARK  248  A    between atoms: _576  and  _579
REMARK  249  A    between atoms: _581  and  _583
REMARK  250  A    between atoms: _583  and  _584
REMARK  251  A    between atoms: _586  and  _588
REMARK  252  A    between atoms: _588  and  _589
REMARK  253  A    between atoms: _588  and  _591
REMARK  254  A    between atoms: _591  and  _592
REMARK  255  A    between atoms: _596  and  _597
REMARK  256  A    between atoms: _602  and  _604
REMARK  257  A    between atoms: _604  and  _605
REMARK  258  A    between atoms: _604  and  _607
REMARK  259  A    between atoms: _607  and  _608
REMARK  260  A    between atoms: _613  and  _614
REMARK  261  A    between atoms: _616  and  _618
REMARK  262  A    between atoms: _618  and  _619
REMARK  263  A    between atoms: _618  and  _621
REMARK  264  A    between atoms: _621  and  _622
REMARK  265  A    between atoms: _625  and  _627
REMARK  266  A    between atoms: _627  and  _628
REMARK  267  A    between atoms: _627  and  _630
REMARK  268  A    between atoms: _630  and  _631
REMARK  269  A    between atoms: _636  and  _638
REMARK  270  A    between atoms: _638  and  _639
REMARK  271  A    between atoms: _638  and  _641
REMARK  272  A    between atoms: _641  and  _642
REMARK  273  A    between atoms: _648  and  _650
REMARK  274  A    between atoms: _650  and  _651
REMARK  275  A    between atoms: _650  and  _653
REMARK  276  A    between atoms: _653  and  _654
REMARK  277  A    between atoms: _657  and  _659
REMARK  278  A    between atoms: _659  and  _660
REMARK  279  A    between atoms: _659  and  _662
REMARK  280  A    between atoms: _662  and  _663
REMARK  281  A    between atoms: _668  and  _669
REMARK  282  A    between atoms: _671  and  _673
REMARK  283  A    between atoms: _673  and  _674
REMARK  284  A    between atoms: _673  and  _676
REMARK  285  A    between atoms: _676  and  _677
REMARK  286  A    between atoms: _677  and  _678
REMARK                            x       y       z     vdW  Elec       q    Type
REMARK                         _______ _______ _______ _____ _____    ______ ____
ROOT
ATOM      1  CA  THR A   1      31.863  10.768   6.302  0.00  0.00    +0.160 C 
ENDROOT
BRANCH   1   2
ATOM      2  N   THR A   1      32.581  10.068   7.317  0.00  0.00    -0.237 NA
ATOM      3  H   THR A   1      33.526   9.695   7.094  0.00  0.00    +0.142 HD
ENDBRANCH   1   2
BRANCH   1   4
ATOM      4  C   THR A   1      30.649   9.986   5.802  0.00  0.00    +0.227 C 
ATOM      5  O   THR A   1      29.590  10.573   5.520  0.00  0.00    -0.287 OA
ENDBRANCH   1   4
BRANCH   1   6
ATOM      6  CB  THR A   1      32.786  11.091   5.161  0.00  0.00    +0.134 C 
ATOM      7  CG2 THR A   1      32.031  11.734   4.096  0.00  0.00    +0.034 C 
BRANCH   6   8
ATOM      8  OG1 THR A   1      33.761  12.014   5.653  0.00  0.00    -0.383 OA
ATOM      9  HG1 THR A   1      34.261  11.597   6.399  0.00  0.00    +0.210 HD
ENDBRANCH   6   8
ENDBRANCH   1   6
TORSDOF 4
REMARK  Name = ../refined-set-2016/3bwj/3bwj_pocket.pdb
REMARK  286 active torsions:
REMARK  status: ('A' for Active; 'I' for Inactive)
REMARK    1  A    between atoms: _1  and  _3
REMARK    2  A    between atoms: _3  and  _4
REMARK    3  A    between atoms: _3  and  _6
REMARK    4  A    between atoms: _6  and  _7
REMARK    5  A    between atoms: _10  and  _12
REMARK    6  A    between atoms: _12  and  _13
REMARK    7  A    between atoms: _12  and  _15
REMARK    8  A    between atoms: _15  and  _16
REMARK    9  A    between atoms: _19  and  _21
REMARK   10  A    between atoms: _21  and  _22
REMARK   11  A    between atoms: _24  and  _26
REMARK   12  A    between atoms: _26  and  _27
REMARK   13  A    between atoms: _26  and  _29
REMARK   14  A    between atoms: _29  and  _30
REMARK   15  A    between atoms: _33  and  _35
REMARK   16  A    between atoms: _35  and  _36
REMARK   17  A    between atoms: _38  and  _40
REMARK   18  A    between atoms: _40  and  _41
REMARK   19  A    between atoms: _40  and  _43
REMARK   20  A    between atoms: _43  and  _44
REMARK   21  A    between atoms: _46  and  _48
REMARK   22  A    between atoms: _48  and  _49
REMARK   23  A    between atoms: _48  and  _51
REMARK   24  A    between atoms: _51  and  _52
REMARK   25  A    between atoms: _58  and  _60
REMARK   26  A    between atoms: _60  and  _61
REMARK   27  A    between atoms: _63  and  _65
REMARK   28  A    between atoms: _65  and  _66
REMARK   29  A    between atoms: _65  and  _68
REMARK   30  A    between atoms: _68  and  _69
REMARK   31  A    between atoms: _69  and  _70
REMARK   32  A    between atoms: _70  and  _71
REMARK   33  A    between atoms: _80  and  _82
REMARK   34  A    between atoms: _82  and  _83
REMARK   35  A    between atoms: _82  and  _85
REMARK   36  A    between atoms: _88  and  _90
REMARK   37  A    between atoms: _90  and  _91
REMARK   38  A    between atoms: _90  and  _93
REMARK   39  A    between atoms: _93  and  _94
REMARK   40  A    between atoms: _94  and  _95
REMARK   41  A    between atoms: _97  and  _99
REMARK   42  A    between atoms: _99  and  _100
REMARK   43  A    between atoms: _99  and  _102
REMARK   44  A    between atoms: _102  and  _103
REMARK   45  A    between atoms: _106  and  _108
REMARK   46  A    between atoms: _108  and  _109
REMARK   47  A    between atoms: _108  and  _111
REMARK   48  A    between atoms: _111  and  _112
REMARK   49  A    between atoms: _117  and  _118
REMARK   50  A    between atoms: _120  and  _122
REMARK   51  A    between atoms: _122  and  _123
REMARK   52  A    between atoms: _126  and  _128
REMARK   53  A    between atoms: _128  and  _129
REMARK   54  A    between atoms: _128  and  _131
REMARK   55  A    between atoms: _131  and  _132
REMARK   56  A    between atoms: _132  and  _133
REMARK   57  A    between atoms: _135  and  _137
REMARK   58  A    between atoms: _137  and  _138
REMARK   59  A    between atoms: _137  and  _140
REMARK   60  A    between atoms: _140  and  _141
REMARK   61  A    between atoms: _141  and  _142
REMARK   62  A    between atoms: _142  and  _143
REMARK   63  A    between atoms: _143  and  _144
REMARK   64  A    between atoms: _148  and  _150
REMARK   65  A    between atoms: _150  and  _151
REMARK   66  A    between atoms: _150  and  _153
REMARK   67  A    between atoms: _153  and  _154
REMARK   68  A    between atoms: _157  and  _159
REMARK   69  A    between atoms: _159  and  _160
REMARK   70  A    between atoms: _159  and  _162
REMARK   71  A    between atoms: _162  and  _163
REMARK   72  A    between atoms: _166  and  _168
REMARK   73  A    between atoms: _168  and  _169
REMARK   74  A    between atoms: _168  and  _171
REMARK   75  A    between atoms: _171  and  _172
REMARK   76  A    between atoms: _175  and  _177
REMARK   77  A    between atoms: _177  and  _178
REMARK   78  A    between atoms: _177  and  _180
REMARK   79  A    between atoms: _180  and  _181
REMARK   80  A    between atoms: _181  and  _182
REMARK   81  A    between atoms: _182  and  _183
REMARK   82  A    between atoms: _183  and  _184
REMARK   83  A    between atoms: _188  and  _190
REMARK   84  A    between atoms: _190  and  _191
REMARK   85  A    between atoms: _190  and  _193
REMARK   86  A    between atoms: _196  and  _198
REMARK   87  A    between atoms: _198  and  _199
REMARK   88  A    between atoms: _198  and  _201
REMARK   89  A    between atoms: _201  and  _202
REMARK   90  A    between atoms: _205  and  _207
REMARK   91  A    between atoms: _207  and  _208
REMARK   92  A    between atoms: _207  and  _210
REMARK   93  A    between atoms: _210  and  _211
REMARK   94  A    between atoms: _211  and  _212
REMARK   95  A    between atoms: _217  and  _219
REMARK   96  A    between atoms: _219  and  _220
REMARK   97  A    between atoms: _219  and  _222
REMARK   98  A    between atoms: _222  and  _223
REMARK   99  A    between atoms: _226  and  _228
REMARK  100  A    between atoms: _228  and  _229
REMARK  101  A    between atoms: _228  and  _231
REMARK  102  A    between atoms: _231  and  _232
REMARK  103  A    between atoms: _232  and  _233
REMARK  104  A    between atoms: _236  and  _238
REMARK  105  A    between atoms: _238  and  _239
REMARK  106  A    between atoms: _238  and  _241
REMARK  107  A    between atoms: _244  and  _246
REMARK  108  A    between atoms: _246  and  _247
REMARK  109  A    between atoms: _246  and  _249
REMARK  110  A    between atoms: _249  and  _250
REMARK  111  A    between atoms: _250  and  _251
REMARK  112  A    between atoms: _251  and  _252
REMARK  113  A    between atoms: _252  and  _253
REMARK  114  A    between atoms: _257  and  _259
REMARK  115  A    between atoms: _259  and  _260
REMARK  116  A    between atoms: _259  and  _262
REMARK  117  A    between atoms: _262  and  _263
REMARK  118  A    between atoms: _266  and  _268
REMARK  119  A    between atoms: _268  and  _269
REMARK  120  A    between atoms: _268  and  _271
REMARK  121  A    between atoms: _271  and  _272
REMARK  122  A    between atoms: _272  and  _273
REMARK  123  A    between atoms: _276  and  _278
REMARK  124  A    between atoms: _278  and  _279
REMARK  125  A    between atoms: _278  and  _281
REMARK  126  A    between atoms: _281  and  _282
REMARK  127  A    between atoms: _282  and  _283
REMARK  128  A    between atoms: _285  and  _287
REMARK  129  A    between atoms: _287  and  _288
REMARK  130  A    between atoms: _287  and  _290
REMARK  131  A    between atoms: _293  and  _295
REMARK  132  A    between atoms: _295  and  _296
REMARK  133  A    between atoms: _295  and  _298
REMARK  134  A    between atoms: _298  and  _299
REMARK  135  A    between atoms: _299  and  _300
REMARK  136  A    between atoms: _302  and  _304
REMARK  137  A    between atoms: _304  and  _305
REMARK  138  A    between atoms: _304  and  _307
REMARK  139  A    between atoms: _307  and  _308
REMARK  140  A    between atoms: _308  and  _309
REMARK  141  A    between atoms: _312  and  _314
REMARK  142  A    between atoms: _314  and  _315
REMARK  143  A    between atoms: _314  and  _317
REMARK  144  A    between atoms: _317  and  _318
REMARK  145  A    between atoms: _323  and  _324
REMARK  146  A    between atoms: _326  and  _328
REMARK  147  A    between atoms: _328  and  _329
REMARK  148  A    between atoms: _328  and  _331
REMARK  149  A    between atoms: _335  and  _336
REMARK  150  A    between atoms: _341  and  _343
REMARK  151  A    between atoms: _343  and  _344
REMARK  152  A    between atoms: _346  and  _348
REMARK  153  A    between atoms: _348  and  _349
REMARK  154  A    between atoms: _351  and  _353
REMARK  155  A    between atoms: _353  and  _354
REMARK  156  A    between atoms: _353  and  _356
REMARK  157  A    between atoms: _356  and  _357
REMARK  158  A    between atoms: _357  and  _358
REMARK  159  A    between atoms: _361  and  _363
REMARK  160  A    between atoms: _363  and  _364
REMARK  161  A    between atoms: _363  and  _366
REMARK  162  A    between atoms: _366  and  _367
REMARK  163  A    between atoms: _367  and  _368
REMARK  164  A    between atoms: _370  and  _372
REMARK  165  A    between atoms: _372  and  _373
REMARK  166  A    between atoms: _372  and  _375
REMARK  167  A    between atoms: _375  and  _376
REMARK  168  A    between atoms: _382  and  _384
REMARK  169  A    between atoms: _384  and  _385
REMARK  170  A    between atoms: _384  and  _387
REMARK  171  A    between atoms: _387  and  _388
REMARK  172  A    between atoms: _390  and  _392
REMARK  173  A    between atoms: _392  and  _393
REMARK  174  A    between atoms: _392  and  _395
REMARK  175  A    between atoms: _395  and  _396
REMARK  176  A    between atoms: _401  and  _402
REMARK  177  A    between atoms: _404  and  _406
REMARK  178  A    between atoms: _406  and  _407
REMARK  179  A    between atoms: _406  and  _409
REMARK  180  A    between atoms: _409  and  _410
REMARK  181  A    between atoms: _410  and  _411
REMARK  182  A    between atoms: _411  and  _412
REMARK  183  A    between atoms: _421  and  _423
REMARK  184  A    between atoms: _423  and  _424
REMARK  185  A    between atoms: _423  and  _426
REMARK  186  A    between atoms: _426  and  _427
REMARK  187  A    between atoms: _430  and  _432
REMARK  188  A    between atoms: _432  and  _433
REMARK  189  A    between atoms: _432  and  _435
REMARK  190  A    between atoms: _435  and  _436
REMARK  191  A    between atoms: _439  and  _441
REMARK  192  A    between atoms: _441  and  _442
REMARK  193  A    between atoms: _441  and  _444
REMARK  194  A    between atoms: _444  and  _445
REMARK  195  A    between atoms: _445  and  _446
REMARK  196  A    between atoms: _446  and  _447
REMARK  197  A    between atoms: _447  and  _448
REMARK  198  A    between atoms: _453  and  _454
REMARK  199  A    between atoms: _459  and  _461
REMARK  200  A    between atoms: _461  and  _462
REMARK  201  A    between atoms: _461  and  _464
REMARK  202  A    between atoms: _464  and  _465
REMARK  203  A    between atoms: _465  and  _466
REMARK  204  A    between atoms: _469  and  _471
REMARK  205  A    between atoms: _471  and  _472
REMARK  206  A    between atoms: _471  and  _474
REMARK  207  A    between atoms: _474  and  _475
REMARK  208  A    between atoms: _480  and  _482
REMARK  209  A    between atoms: _482  and  _483
REMARK  210  A    between atoms: _482  and  _485
REMARK  211  A    between atoms: _485  and  _486
REMARK  212  A    between atoms: _489  and  _491
REMARK  213  A    between atoms: _491  and  _492
REMARK  214  A    between atoms: _491  and  _494
REMARK  215  A    between atoms: _494  and  _495
REMARK  216  A    between atoms: _498  and  _500
REMARK  217  A    between atoms: _500  and  _501
REMARK  218  A    between atoms: _500  and  _503
REMARK  219  A    between atoms: _503  and  _504
REMARK  220  A    between atoms: _507  and  _509
REMARK  221  A    between atoms: _509  and  _510
REMARK  222  A    between atoms: _509  and  _512
REMARK  223  A    between atoms: _512  and  _513
REMARK  224  A    between atoms: _513  and  _514
REMARK  225  A    between atoms: _519  and  _521
REMARK  226  A    between atoms: _521  and  _522
REMARK  227  A    between atoms: _521  and  _524
REMARK  228  A    between atoms: _527  and  _529
REMARK  229  A    between atoms: _529  and  _530
REMARK  230  A    between atoms: _529  and  _532
REMARK  231  A    between atoms: _532  and  _533
REMARK  232  A    between atoms: _536  and  _538
REMARK  233  A    between atoms: _538  and  _539
REMARK  234  A    between atoms: _538  and  _541
REMARK  235  A    between atoms: _541  and  _542
REMARK  236  A    between atoms: _545  and  _547
REMARK  237  A    between atoms: _547  and  _548
REMARK  238  A    between atoms: _547  and  _550
REMARK  239  A    between atoms: _550  and  _551
REMARK  240  A    between atoms: _557  and  _559
REMARK  241  A    between atoms: _559  and  _560
REMARK  242  A    between atoms: _562  and  _564
REMARK  243  A    between atoms: _564  and  _565
REMARK  244  A    between atoms: _564  and  _567
REMARK  245  A    between atoms: _567  and  _568
REMARK  246  A    between atoms: _574  and  _576
REMARK  247  A    between atoms: _576  and  _577
REMARK  248  A    between atoms: _576  and  _579
REMARK  249  A    between atoms: _581  and  _583
REMARK  250  A    between atoms: _583  and  _584
REMARK  251  A    between atoms: _586  and  _588
REMARK  252  A    between atoms: _588  and  _589
REMARK  253  A    between atoms: _588  and  _591
REMARK  254  A    between atoms: _591  and  _592
REMARK  255  A    between atoms: _596  and  _597
REMARK  256  A    between atoms: _602  and  _604
REMARK  257  A    between atoms: _604  and  _605
REMARK  258  A    between atoms: _604  and  _607
REMARK  259  A    between atoms: _607  and  _608
REMARK  260  A    between atoms: _613  and  _614
REMARK  261  A    between atoms: _616  and  _618
REMARK  262  A    between atoms: _618  and  _619
REMARK  263  A    between atoms: _618  and  _621
REMARK  264  A    between atoms: _621  and  _622
REMARK  265  A    between atoms: _625  and  _627
REMARK  266  A    between atoms: _627  and  _628
REMARK  267  A    between atoms: _627  and  _630
REMARK  268  A    between atoms: _630  and  _631
REMARK  269  A    between atoms: _636  and  _638
REMARK  270  A    between atoms: _638  and  _639
REMARK  271  A    between atoms: _638  and  _641
REMARK  272  A    between atoms: _641  and  _642
REMARK  273  A    between atoms: _648  and  _650
REMARK  274  A    between atoms: _650  and  _651
REMARK  275  A    between atoms: _650  and  _653
REMARK  276  A    between atoms: _653  and  _654
REMARK  277  A    between atoms: _657  and  _659
REMARK  278  A    between atoms: _659  and  _660
REMARK  279  A    between atoms: _659  and  _662
REMARK  280  A    between atoms: _662  and  _663
REMARK  281  A    between atoms: _668  and  _669
REMARK  282  A    between atoms: _671  and  _673
REMARK  283  A    between atoms: _673  and  _674
REMARK  284  A    between atoms: _673  and  _676
REMARK  285  A    between atoms: _676  and  _677
REMARK  286  A    between atoms: _677  and  _678
REMARK                            x       y       z     vdW  Elec       q    Type
REMARK                         _______ _______ _______ _____ _____    ______ ____
ROOT
ATOM      1  CA  GLU A   1      27.343  11.477   8.576  0.00  0.00    +0.134 C 
ENDROOT
BRANCH   1   2
ATOM      2  N   GLU A   1      28.021  10.175   8.567  0.00  0.00    -0.239 NA
ATOM      3  H   GLU A   1      29.037  10.128   8.348  0.00  0.00    +0.142 HD
ENDBRANCH   1   2
BRANCH   1   4
ATOM      4  C   GLU A   1      26.136  11.535   7.639  0.00  0.00    +0.224 C 
ATOM      5  O   GLU A   1      25.060  11.925   8.044  0.00  0.00    -0.287 OA
ENDBRANCH   1   4
BRANCH   1   6
ATOM      6  CB  GLU A   1      28.312  12.626   8.254  0.00  0.00    +0.037 C 
BRANCH   6   7
ATOM      7  CG  GLU A   1      27.571  13.932   8.097  0.00  0.00    +0.116 C 
BRANCH   7   8
ATOM      8  CD  GLU A   1      28.425  15.156   8.124  0.00  0.00    +0.365 C 
ATOM      9  OE2 GLU A   1      27.887  16.218   8.546  0.00  0.00    -0.246 OA
ATOM     10  OE1 GLU A   1      29.595  15.070   7.700  0.00  0.00    -0.246 OA
ENDBRANCH   7   8
ENDBRANCH   6   7
ENDBRANCH   1   6
TORSDOF 5
REMARK  Name = ../refined-set-2016/3bwj/3bwj_pocket.pdb
REMARK  286 active torsions:
REMARK  status: ('A' for Active; 'I' for Inactive)
REMARK    1  A    between atoms: _1  and  _3
REMARK    2  A    between atoms: _3  and  _4
REMARK    3  A    between atoms: _3  and  _6
REMARK    4  A    between atoms: _6  and  _7
REMARK    5  A    between atoms: _10  and  _12
REMARK    6  A    between atoms: _12  and  _13
REMARK    7  A    between atoms: _12  and  _15
REMARK    8  A    between atoms: _15  and  _16
REMARK    9  A    between atoms: _19  and  _21
REMARK   10  A    between atoms: _21  and  _22
REMARK   11  A    between atoms: _24  and  _26
REMARK   12  A    between atoms: _26  and  _27
REMARK   13  A    between atoms: _26  and  _29
REMARK   14  A    between atoms: _29  and  _30
REMARK   15  A    between atoms: _33  and  _35
REMARK   16  A    between atoms: _35  and  _36
REMARK   17  A    between atoms: _38  and  _40
REMARK   18  A    between atoms: _40  and  _41
REMARK   19  A    between atoms: _40  and  _43
REMARK   20  A    between atoms: _43  and  _44
REMARK   21  A    between atoms: _46  and  _48
REMARK   22  A    between atoms: _48  and  _49
REMARK   23  A    between atoms: _48  and  _51
REMARK   24  A    between atoms: _51  and  _52
REMARK   25  A    between atoms: _58  and  _60
REMARK   26  A    between atoms: _60  and  _61
REMARK   27  A    between atoms: _63  and  _65
REMARK   28  A    between atoms: _65  and  _66
REMARK   29  A    between atoms: _65  and  _68
REMARK   30  A    between atoms: _68  and  _69
REMARK   31  A    between atoms: _69  and  _70
REMARK   32  A    between atoms: _70  and  _71
REMARK   33  A    between atoms: _80  and  _82
REMARK   34  A    between atoms: _82  and  _83
REMARK   35  A    between atoms: _82  and  _85
REMARK   36  A    between atoms: _88  and  _90
REMARK   37  A    between atoms: _90  and  _91
REMARK   38  A    between atoms: _90  and  _93
REMARK   39  A    between atoms: _93  and  _94
REMARK   40  A    between atoms: _94  and  _95
REMARK   41  A    between atoms: _97  and  _99
REMARK   42  A    between atoms: _99  and  _100
REMARK   43  A    between atoms: _99  and  _102
REMARK   44  A    between atoms: _102  and  _103
REMARK   45  A    between atoms: _106  and  _108
REMARK   46  A    between atoms: _108  and  _109
REMARK   47  A    between atoms: _108  and  _111
REMARK   48  A    between atoms: _111  and  _112
REMARK   49  A    between atoms: _117  and  _118
REMARK   50  A    between atoms: _120  and  _122
REMARK   51  A    between atoms: _122  and  _123
REMARK   52  A    between atoms: _126  and  _128
REMARK   53  A    between atoms: _128  and  _129
REMARK   54  A    between atoms: _128  and  _131
REMARK   55  A    between atoms: _131  and  _132
REMARK   56  A    between atoms: _132  and  _133
REMARK   57  A    between atoms: _135  and  _137
REMARK   58  A    between atoms: _137  and  _138
REMARK   59  A    between atoms: _137  and  _140
REMARK   60  A    between atoms: _140  and  _141
REMARK   61  A    between atoms: _141  and  _142
REMARK   62  A    between atoms: _142  and  _143
REMARK   63  A    between atoms: _143  and  _144
REMARK   64  A    between atoms: _148  and  _150
REMARK   65  A    between atoms: _150  and  _151
REMARK   66  A    between atoms: _150  and  _153
REMARK   67  A    between atoms: _153  and  _154
REMARK   68  A    between atoms: _157  and  _159
REMARK   69  A    between atoms: _159  and  _160
REMARK   70  A    between atoms: _159  and  _162
REMARK   71  A    between atoms: _162  and  _163
REMARK   72  A    between atoms: _166  and  _168
REMARK   73  A    between atoms: _168  and  _169
REMARK   74  A    between atoms: _168  and  _171
REMARK   75  A    between atoms: _171  and  _172
REMARK   76  A    between atoms: _175  and  _177
REMARK   77  A    between atoms: _177  and  _178
REMARK   78  A    between atoms: _177  and  _180
REMARK   79  A    between atoms: _180  and  _181
REMARK   80  A    between atoms: _181  and  _182
REMARK   81  A    between atoms: _182  and  _183
REMARK   82  A    between atoms: _183  and  _184
REMARK   83  A    between atoms: _188  and  _190
REMARK   84  A    between atoms: _190  and  _191
REMARK   85  A    between atoms: _190  and  _193
REMARK   86  A    between atoms: _196  and  _198
REMARK   87  A    between atoms: _198  and  _199
REMARK   88  A    between atoms: _198  and  _201
REMARK   89  A    between atoms: _201  and  _202
REMARK   90  A    between atoms: _205  and  _207
REMARK   91  A    between atoms: _207  and  _208
REMARK   92  A    between atoms: _207  and  _210
REMARK   93  A    between atoms: _210  and  _211
REMARK   94  A    between atoms: _211  and  _212
REMARK   95  A    between atoms: _217  and  _219
REMARK   96  A    between atoms: _219  and  _220
REMARK   97  A    between atoms: _219  and  _222
REMARK   98  A    between atoms: _222  and  _223
REMARK   99  A    between atoms: _226  and  _228
REMARK  100  A    between atoms: _228  and  _229
REMARK  101  A    between atoms: _228  and  _231
REMARK  102  A    between atoms: _231  and  _232
REMARK  103  A    between atoms: _232  and  _233
REMARK  104  A    between atoms: _236  and  _238
REMARK  105  A    between atoms: _238  and  _239
REMARK  106  A    between atoms: _238  and  _241
REMARK  107  A    between atoms: _244  and  _246
REMARK  108  A    between atoms: _246  and  _247
REMARK  109  A    between atoms: _246  and  _249
REMARK  110  A    between atoms: _249  and  _250
REMARK  111  A    between atoms: _250  and  _251
REMARK  112  A    between atoms: _251  and  _252
REMARK  113  A    between atoms: _252  and  _253
REMARK  114  A    between atoms: _257  and  _259
REMARK  115  A    between atoms: _259  and  _260
REMARK  116  A    between atoms: _259  and  _262
REMARK  117  A    between atoms: _262  and  _263
REMARK  118  A    between atoms: _266  and  _268
REMARK  119  A    between atoms: _268  and  _269
REMARK  120  A    between atoms: _268  and  _271
REMARK  121  A    between atoms: _271  and  _272
REMARK  122  A    between atoms: _272  and  _273
REMARK  123  A    between atoms: _276  and  _278
REMARK  124  A    between atoms: _278  and  _279
REMARK  125  A    between atoms: _278  and  _281
REMARK  126  A    between atoms: _281  and  _282
REMARK  127  A    between atoms: _282  and  _283
REMARK  128  A    between atoms: _285  and  _287
REMARK  129  A    between atoms: _287  and  _288
REMARK  130  A    between atoms: _287  and  _290
REMARK  131  A    between atoms: _293  and  _295
REMARK  132  A    between atoms: _295  and  _296
REMARK  133  A    between atoms: _295  and  _298
REMARK  134  A    between atoms: _298  and  _299
REMARK  135  A    between atoms: _299  and  _300
REMARK  136  A    between atoms: _302  and  _304
REMARK  137  A    between atoms: _304  and  _305
REMARK  138  A    between atoms: _304  and  _307
REMARK  139  A    between atoms: _307  and  _308
REMARK  140  A    between atoms: _308  and  _309
REMARK  141  A    between atoms: _312  and  _314
REMARK  142  A    between atoms: _314  and  _315
REMARK  143  A    between atoms: _314  and  _317
REMARK  144  A    between atoms: _317  and  _318
REMARK  145  A    between atoms: _323  and  _324
REMARK  146  A    between atoms: _326  and  _328
REMARK  147  A    between atoms: _328  and  _329
REMARK  148  A    between atoms: _328  and  _331
REMARK  149  A    between atoms: _335  and  _336
REMARK  150  A    between atoms: _341  and  _343
REMARK  151  A    between atoms: _343  and  _344
REMARK  152  A    between atoms: _346  and  _348
REMARK  153  A    between atoms: _348  and  _349
REMARK  154  A    between atoms: _351  and  _353
REMARK  155  A    between atoms: _353  and  _354
REMARK  156  A    between atoms: _353  and  _356
REMARK  157  A    between atoms: _356  and  _357
REMARK  158  A    between atoms: _357  and  _358
REMARK  159  A    between atoms: _361  and  _363
REMARK  160  A    between atoms: _363  and  _364
REMARK  161  A    between atoms: _363  and  _366
REMARK  162  A    between atoms: _366  and  _367
REMARK  163  A    between atoms: _367  and  _368
REMARK  164  A    between atoms: _370  and  _372
REMARK  165  A    between atoms: _372  and  _373
REMARK  166  A    between atoms: _372  and  _375
REMARK  167  A    between atoms: _375  and  _376
REMARK  168  A    between atoms: _382  and  _384
REMARK  169  A    between atoms: _384  and  _385
REMARK  170  A    between atoms: _384  and  _387
REMARK  171  A    between atoms: _387  and  _388
REMARK  172  A    between atoms: _390  and  _392
REMARK  173  A    between atoms: _392  and  _393
REMARK  174  A    between atoms: _392  and  _395
REMARK  175  A    between atoms: _395  and  _396
REMARK  176  A    between atoms: _401  and  _402
REMARK  177  A    between atoms: _404  and  _406
REMARK  178  A    between atoms: _406  and  _407
REMARK  179  A    between atoms: _406  and  _409
REMARK  180  A    between atoms: _409  and  _410
REMARK  181  A    between atoms: _410  and  _411
REMARK  182  A    between atoms: _411  and  _412
REMARK  183  A    between atoms: _421  and  _423
REMARK  184  A    between atoms: _423  and  _424
REMARK  185  A    between atoms: _423  and  _426
REMARK  186  A    between atoms: _426  and  _427
REMARK  187  A    between atoms: _430  and  _432
REMARK  188  A    between atoms: _432  and  _433
REMARK  189  A    between atoms: _432  and  _435
REMARK  190  A    between atoms: _435  and  _436
REMARK  191  A    between atoms: _439  and  _441
REMARK  192  A    between atoms: _441  and  _442
REMARK  193  A    between atoms: _441  and  _444
REMARK  194  A    between atoms: _444  and  _445
REMARK  195  A    between atoms: _445  and  _446
REMARK  196  A    between atoms: _446  and  _447
REMARK  197  A    between atoms: _447  and  _448
REMARK  198  A    between atoms: _453  and  _454
REMARK  199  A    between atoms: _459  and  _461
REMARK  200  A    between atoms: _461  and  _462
REMARK  201  A    between atoms: _461  and  _464
REMARK  202  A    between atoms: _464  and  _465
REMARK  203  A    between atoms: _465  and  _466
REMARK  204  A    between atoms: _469  and  _471
REMARK  205  A    between atoms: _471  and  _472
REMARK  206  A    between atoms: _471  and  _474
REMARK  207  A    between atoms: _474  and  _475
REMARK  208  A    between atoms: _480  and  _482
REMARK  209  A    between atoms: _482  and  _483
REMARK  210  A    between atoms: _482  and  _485
REMARK  211  A    between atoms: _485  and  _486
REMARK  212  A    between atoms: _489  and  _491
REMARK  213  A    between atoms: _491  and  _492
REMARK  214  A    between atoms: _491  and  _494
REMARK  215  A    between atoms: _494  and  _495
REMARK  216  A    between atoms: _498  and  _500
REMARK  217  A    between atoms: _500  and  _501
REMARK  218  A    between atoms: _500  and  _503
REMARK  219  A    between atoms: _503  and  _504
REMARK  220  A    between atoms: _507  and  _509
REMARK  221  A    between atoms: _509  and  _510
REMARK  222  A    between atoms: _509  and  _512
REMARK  223  A    between atoms: _512  and  _513
REMARK  224  A    between atoms: _513  and  _514
REMARK  225  A    between atoms: _519  and  _521
REMARK  226  A    between atoms: _521  and  _522
REMARK  227  A    between atoms: _521  and  _524
REMARK  228  A    between atoms: _527  and  _529
REMARK  229  A    between atoms: _529  and  _530
REMARK  230  A    between atoms: _529  and  _532
REMARK  231  A    between atoms: _532  and  _533
REMARK  232  A    between atoms: _536  and  _538
REMARK  233  A    between atoms: _538  and  _539
REMARK  234  A    between atoms: _538  and  _541
REMARK  235  A    between atoms: _541  and  _542
REMARK  236  A    between atoms: _545  and  _547
REMARK  237  A    between atoms: _547  and  _548
REMARK  238  A    between atoms: _547  and  _550
REMARK  239  A    between atoms: _550  and  _551
REMARK  240  A    between atoms: _557  and  _559
REMARK  241  A    between atoms: _559  and  _560
REMARK  242  A    between atoms: _562  and  _564
REMARK  243  A    between atoms: _564  and  _565
REMARK  244  A    between atoms: _564  and  _567
REMARK  245  A    between atoms: _567  and  _568
REMARK  246  A    between atoms: _574  and  _576
REMARK  247  A    between atoms: _576  and  _577
REMARK  248  A    between atoms: _576  and  _579
REMARK  249  A    between atoms: _581  and  _583
REMARK  250  A    between atoms: _583  and  _584
REMARK  251  A    between atoms: _586  and  _588
REMARK  252  A    between atoms: _588  and  _589
REMARK  253  A    between atoms: _588  and  _591
REMARK  254  A    between atoms: _591  and  _592
REMARK  255  A    between atoms: _596  and  _597
REMARK  256  A    between atoms: _602  and  _604
REMARK  257  A    between atoms: _604  and  _605
REMARK  258  A    between atoms: _604  and  _607
REMARK  259  A    between atoms: _607  and  _608
REMARK  260  A    between atoms: _613  and  _614
REMARK  261  A    between atoms: _616  and  _618
REMARK  262  A    between atoms: _618  and  _619
REMARK  263  A    between atoms: _618  and  _621
REMARK  264  A    between atoms: _621  and  _622
REMARK  265  A    between atoms: _625  and  _627
REMARK  266  A    between atoms: _627  and  _628
REMARK  267  A    between atoms: _627  and  _630
REMARK  268  A    between atoms: _630  and  _631
REMARK  269  A    between atoms: _636  and  _638
REMARK  270  A    between atoms: _638  and  _639
REMARK  271  A    between atoms: _638  and  _641
REMARK  272  A    between atoms: _641  and  _642
REMARK  273  A    between atoms: _648  and  _650
REMARK  274  A    between atoms: _650  and  _651
REMARK  275  A    between atoms: _650  and  _653
REMARK  276  A    between atoms: _653  and  _654
REMARK  277  A    between atoms: _657  and  _659
REMARK  278  A    between atoms: _659  and  _660
REMARK  279  A    between atoms: _659  and  _662
REMARK  280  A    between atoms: _662  and  _663
REMARK  281  A    between atoms: _668  and  _669
REMARK  282  A    between atoms: _671  and  _673
REMARK  283  A    between atoms: _673  and  _674
REMARK  284  A    between atoms: _673  and  _676
REMARK  285  A    between atoms: _676  and  _677
REMARK  286  A    between atoms: _677  and  _678
REMARK                            x       y       z     vdW  Elec       q    Type
REMARK                         _______ _______ _______ _____ _____    ______ ____
ROOT
ATOM      1  C   LYS A   2      18.525  18.606   6.365  0.00  0.00    +0.241 C 
ATOM      2  N   LEU A   3      18.985  17.379   6.120  0.00  0.00    -0.297 N 
ATOM      3  H   LEU A   3      18.820  16.640   6.833  0.00  0.00    +0.150 HD
ATOM      4  O   LYS A   2      18.762  19.571   5.651  0.00  0.00    -0.273 OA
ENDROOT
BRANCH   2   5
ATOM      5  CA  LEU A   3      19.707  17.019   4.906  0.00  0.00    +0.149 C 
BRANCH   5   6
ATOM      6  C   LEU A   3      18.683  16.850   3.792  0.00  0.00    +0.241 C 
ATOM      7  O   LEU A   3      17.888  15.922   3.841  0.00  0.00    -0.273 OA
ATOM      8  N   GLU A   4      18.702  17.774   2.825  0.00  0.00    -0.298 N 
ATOM      9  H   GLU A   4      19.413  18.530   2.886  0.00  0.00    +0.150 HD
BRANCH   8  10
ATOM     10  CA  GLU A   4      17.778  17.785   1.681  0.00  0.00    +0.137 C 
BRANCH  10  11
ATOM     11  C   GLU A   4      18.248  16.978   0.446  0.00  0.00    +0.227 C 
ATOM     12  O   GLU A   4      17.456  16.241  -0.149  0.00  0.00    -0.286 OA
ENDBRANCH  10  11
BRANCH  10  13
ATOM     13  CB  GLU A   4      17.537  19.227   1.269  0.00  0.00    +0.039 C 
BRANCH  13  14
ATOM     14  CG  GLU A   4      16.781  20.034   2.337  0.00  0.00    +0.116 C 
BRANCH  14  15
ATOM     15  CD  GLU A   4      15.287  19.856   2.196  0.00  0.00    +0.365 C 
ATOM     16  OE2 GLU A   4      14.640  19.520   3.211  0.00  0.00    -0.246 OA
ATOM     17  OE1 GLU A   4      14.789  20.027   1.046  0.00  0.00    -0.246 OA
ENDBRANCH  14  15
ENDBRANCH  13  14
ENDBRANCH  10  13
ENDBRANCH   8  10
ENDBRANCH   5   6
BRANCH   5  18
ATOM     18  CB  LEU A   3      20.477  15.707   5.084  0.00  0.00    +0.029 C 
BRANCH  18  19
ATOM     19  CG  LEU A   3      21.153  15.154   3.808  0.00  0.00    +0.002 C 
ATOM     20  CD2 LEU A   3      21.516  13.692   3.918  0.00  0.00    +0.000 C 
ATOM     21  CD1 LEU A   3      22.389  15.960   3.417  0.00  0.00    +0.000 C 
ENDBRANCH  18  19
ENDBRANCH   5  18
ENDBRANCH   2   5
BRANCH   1  22
ATOM     22  CA  LYS A   2      17.693  18.771   7.631  0.00  0.00    +0.149 C 
BRANCH  22  25
ATOM     23  C   VAL A   1      18.985  19.209   9.683  0.00  0.00    +0.238 C 
ATOM     24  O   VAL A   1      19.124  17.990   9.926  0.00  0.00    -0.274 OA
ATOM     25  N   LYS A   2      18.308  19.664   8.625  0.00  0.00    -0.297 N 
ATOM     26  H   LYS A   2      18.212  20.692   8.499  0.00  0.00    +0.150 HD
BRANCH  23  27
ATOM     27  CA  VAL A   1      19.599  20.285  10.623  0.00  0.00    +0.145 C 
BRANCH  27  28
ATOM     28  CB  VAL A   1      21.029  20.701  10.125  0.00  0.00    +0.025 C 
ATOM     29  CG2 VAL A   1      21.916  19.465   9.794  0.00  0.00    +0.002 C 
ATOM     30  CG1 VAL A   1      20.897  21.589   8.933  0.00  0.00    +0.002 C 
ENDBRANCH  27  28
BRANCH  27  31
ATOM     31  N   VAL A   1      19.632  19.855  12.026  0.00  0.00    -0.238 NA
ATOM     32  H   VAL A   1      20.521  19.928  12.560  0.00  0.00    +0.142 HD
ENDBRANCH  27  31
ENDBRANCH  23  27
ENDBRANCH  22  25
BRANCH  22  33
ATOM     33  CB  LYS A   2      16.274  19.228   7.275  0.00  0.00    +0.029 C 
BRANCH  33  34
ATOM     34  CG  LYS A   2      15.235  18.585   8.176  0.00  0.00    +0.000 C 
BRANCH  34  35
ATOM     35  CD  LYS A   2      13.796  19.018   7.799  0.00  0.00    -0.024 C 
BRANCH  35  36
ATOM     36  CE  LYS A   2      12.715  18.045   8.412  0.00  0.00    -0.086 C 
BRANCH  36  37
ATOM     37  NZ  LYS A   2      11.379  18.779   8.630  0.00  0.00    +0.380 N 
ATOM     38  HZ1 LYS A   2      11.524  19.574   9.284  0.00  0.00    -0.089 HD
ATOM     39  HZ2 LYS A   2      10.684  18.119   9.034  0.00  0.00    -0.089 HD
ATOM     40  HZ3 LYS A   2      11.029  19.138   7.719  0.00  0.00    -0.089 HD
ENDBRANCH  36  37
ENDBRANCH  35  36
ENDBRANCH  34  35
ENDBRANCH  33  34
ENDBRANCH  22  33
ENDBRANCH   1  22
TORSDOF 19
REMARK  Name = ../refined-set-2016/3bwj/3bwj_pocket.pdb
REMARK  286 active torsions:
REMARK  status: ('A' for Active; 'I' for Inactive)
REMARK    1  A    between atoms: _1  and  _3
REMARK    2  A    between atoms: _3  and  _4
REMARK    3  A    between atoms: _3  and  _6
REMARK    4  A    between atoms: _6  and  _7
REMARK    5  A    between atoms: _10  and  _12
REMARK    6  A    between atoms: _12  and  _13
REMARK    7  A    between atoms: _12  and  _15
REMARK    8  A    between atoms: _15  and  _16
REMARK    9  A    between atoms: _19  and  _21
REMARK   10  A    between atoms: _21  and  _22
REMARK   11  A    between atoms: _24  and  _26
REMARK   12  A    between atoms: _26  and  _27
REMARK   13  A    between atoms: _26  and  _29
REMARK   14  A    between atoms: _29  and  _30
REMARK   15  A    between atoms: _33  and  _35
REMARK   16  A    between atoms: _35  and  _36
REMARK   17  A    between atoms: _38  and  _40
REMARK   18  A    between atoms: _40  and  _41
REMARK   19  A    between atoms: _40  and  _43
REMARK   20  A    between atoms: _43  and  _44
REMARK   21  A    between atoms: _46  and  _48
REMARK   22  A    between atoms: _48  and  _49
REMARK   23  A    between atoms: _48  and  _51
REMARK   24  A    between atoms: _51  and  _52
REMARK   25  A    between atoms: _58  and  _60
REMARK   26  A    between atoms: _60  and  _61
REMARK   27  A    between atoms: _63  and  _65
REMARK   28  A    between atoms: _65  and  _66
REMARK   29  A    between atoms: _65  and  _68
REMARK   30  A    between atoms: _68  and  _69
REMARK   31  A    between atoms: _69  and  _70
REMARK   32  A    between atoms: _70  and  _71
REMARK   33  A    between atoms: _80  and  _82
REMARK   34  A    between atoms: _82  and  _83
REMARK   35  A    between atoms: _82  and  _85
REMARK   36  A    between atoms: _88  and  _90
REMARK   37  A    between atoms: _90  and  _91
REMARK   38  A    between atoms: _90  and  _93
REMARK   39  A    between atoms: _93  and  _94
REMARK   40  A    between atoms: _94  and  _95
REMARK   41  A    between atoms: _97  and  _99
REMARK   42  A    between atoms: _99  and  _100
REMARK   43  A    between atoms: _99  and  _102
REMARK   44  A    between atoms: _102  and  _103
REMARK   45  A    between atoms: _106  and  _108
REMARK   46  A    between atoms: _108  and  _109
REMARK   47  A    between atoms: _108  and  _111
REMARK   48  A    between atoms: _111  and  _112
REMARK   49  A    between atoms: _117  and  _118
REMARK   50  A    between atoms: _120  and  _122
REMARK   51  A    between atoms: _122  and  _123
REMARK   52  A    between atoms: _126  and  _128
REMARK   53  A    between atoms: _128  and  _129
REMARK   54  A    between atoms: _128  and  _131
REMARK   55  A    between atoms: _131  and  _132
REMARK   56  A    between atoms: _132  and  _133
REMARK   57  A    between atoms: _135  and  _137
REMARK   58  A    between atoms: _137  and  _138
REMARK   59  A    between atoms: _137  and  _140
REMARK   60  A    between atoms: _140  and  _141
REMARK   61  A    between atoms: _141  and  _142
REMARK   62  A    between atoms: _142  and  _143
REMARK   63  A    between atoms: _143  and  _144
REMARK   64  A    between atoms: _148  and  _150
REMARK   65  A    between atoms: _150  and  _151
REMARK   66  A    between atoms: _150  and  _153
REMARK   67  A    between atoms: _153  and  _154
REMARK   68  A    between atoms: _157  and  _159
REMARK   69  A    between atoms: _159  and  _160
REMARK   70  A    between atoms: _159  and  _162
REMARK   71  A    between atoms: _162  and  _163
REMARK   72  A    between atoms: _166  and  _168
REMARK   73  A    between atoms: _168  and  _169
REMARK   74  A    between atoms: _168  and  _171
REMARK   75  A    between atoms: _171  and  _172
REMARK   76  A    between atoms: _175  and  _177
REMARK   77  A    between atoms: _177  and  _178
REMARK   78  A    between atoms: _177  and  _180
REMARK   79  A    between atoms: _180  and  _181
REMARK   80  A    between atoms: _181  and  _182
REMARK   81  A    between atoms: _182  and  _183
REMARK   82  A    between atoms: _183  and  _184
REMARK   83  A    between atoms: _188  and  _190
REMARK   84  A    between atoms: _190  and  _191
REMARK   85  A    between atoms: _190  and  _193
REMARK   86  A    between atoms: _196  and  _198
REMARK   87  A    between atoms: _198  and  _199
REMARK   88  A    between atoms: _198  and  _201
REMARK   89  A    between atoms: _201  and  _202
REMARK   90  A    between atoms: _205  and  _207
REMARK   91  A    between atoms: _207  and  _208
REMARK   92  A    between atoms: _207  and  _210
REMARK   93  A    between atoms: _210  and  _211
REMARK   94  A    between atoms: _211  and  _212
REMARK   95  A    between atoms: _217  and  _219
REMARK   96  A    between atoms: _219  and  _220
REMARK   97  A    between atoms: _219  and  _222
REMARK   98  A    between atoms: _222  and  _223
REMARK   99  A    between atoms: _226  and  _228
REMARK  100  A    between atoms: _228  and  _229
REMARK  101  A    between atoms: _228  and  _231
REMARK  102  A    between atoms: _231  and  _232
REMARK  103  A    between atoms: _232  and  _233
REMARK  104  A    between atoms: _236  and  _238
REMARK  105  A    between atoms: _238  and  _239
REMARK  106  A    between atoms: _238  and  _241
REMARK  107  A    between atoms: _244  and  _246
REMARK  108  A    between atoms: _246  and  _247
REMARK  109  A    between atoms: _246  and  _249
REMARK  110  A    between atoms: _249  and  _250
REMARK  111  A    between atoms: _250  and  _251
REMARK  112  A    between atoms: _251  and  _252
REMARK  113  A    between atoms: _252  and  _253
REMARK  114  A    between atoms: _257  and  _259
REMARK  115  A    between atoms: _259  and  _260
REMARK  116  A    between atoms: _259  and  _262
REMARK  117  A    between atoms: _262  and  _263
REMARK  118  A    between atoms: _266  and  _268
REMARK  119  A    between atoms: _268  and  _269
REMARK  120  A    between atoms: _268  and  _271
REMARK  121  A    between atoms: _271  and  _272
REMARK  122  A    between atoms: _272  and  _273
REMARK  123  A    between atoms: _276  and  _278
REMARK  124  A    between atoms: _278  and  _279
REMARK  125  A    between atoms: _278  and  _281
REMARK  126  A    between atoms: _281  and  _282
REMARK  127  A    between atoms: _282  and  _283
REMARK  128  A    between atoms: _285  and  _287
REMARK  129  A    between atoms: _287  and  _288
REMARK  130  A    between atoms: _287  and  _290
REMARK  131  A    between atoms: _293  and  _295
REMARK  132  A    between atoms: _295  and  _296
REMARK  133  A    between atoms: _295  and  _298
REMARK  134  A    between atoms: _298  and  _299
REMARK  135  A    between atoms: _299  and  _300
REMARK  136  A    between atoms: _302  and  _304
REMARK  137  A    between atoms: _304  and  _305
REMARK  138  A    between atoms: _304  and  _307
REMARK  139  A    between atoms: _307  and  _308
REMARK  140  A    between atoms: _308  and  _309
REMARK  141  A    between atoms: _312  and  _314
REMARK  142  A    between atoms: _314  and  _315
REMARK  143  A    between atoms: _314  and  _317
REMARK  144  A    between atoms: _317  and  _318
REMARK  145  A    between atoms: _323  and  _324
REMARK  146  A    between atoms: _326  and  _328
REMARK  147  A    between atoms: _328  and  _329
REMARK  148  A    between atoms: _328  and  _331
REMARK  149  A    between atoms: _335  and  _336
REMARK  150  A    between atoms: _341  and  _343
REMARK  151  A    between atoms: _343  and  _344
REMARK  152  A    between atoms: _346  and  _348
REMARK  153  A    between atoms: _348  and  _349
REMARK  154  A    between atoms: _351  and  _353
REMARK  155  A    between atoms: _353  and  _354
REMARK  156  A    between atoms: _353  and  _356
REMARK  157  A    between atoms: _356  and  _357
REMARK  158  A    between atoms: _357  and  _358
REMARK  159  A    between atoms: _361  and  _363
REMARK  160  A    between atoms: _363  and  _364
REMARK  161  A    between atoms: _363  and  _366
REMARK  162  A    between atoms: _366  and  _367
REMARK  163  A    between atoms: _367  and  _368
REMARK  164  A    between atoms: _370  and  _372
REMARK  165  A    between atoms: _372  and  _373
REMARK  166  A    between atoms: _372  and  _375
REMARK  167  A    between atoms: _375  and  _376
REMARK  168  A    between atoms: _382  and  _384
REMARK  169  A    between atoms: _384  and  _385
REMARK  170  A    between atoms: _384  and  _387
REMARK  171  A    between atoms: _387  and  _388
REMARK  172  A    between atoms: _390  and  _392
REMARK  173  A    between atoms: _392  and  _393
REMARK  174  A    between atoms: _392  and  _395
REMARK  175  A    between atoms: _395  and  _396
REMARK  176  A    between atoms: _401  and  _402
REMARK  177  A    between atoms: _404  and  _406
REMARK  178  A    between atoms: _406  and  _407
REMARK  179  A    between atoms: _406  and  _409
REMARK  180  A    between atoms: _409  and  _410
REMARK  181  A    between atoms: _410  and  _411
REMARK  182  A    between atoms: _411  and  _412
REMARK  183  A    between atoms: _421  and  _423
REMARK  184  A    between atoms: _423  and  _424
REMARK  185  A    between atoms: _423  and  _426
REMARK  186  A    between atoms: _426  and  _427
REMARK  187  A    between atoms: _430  and  _432
REMARK  188  A    between atoms: _432  and  _433
REMARK  189  A    between atoms: _432  and  _435
REMARK  190  A    between atoms: _435  and  _436
REMARK  191  A    between atoms: _439  and  _441
REMARK  192  A    between atoms: _441  and  _442
REMARK  193  A    between atoms: _441  and  _444
REMARK  194  A    between atoms: _444  and  _445
REMARK  195  A    between atoms: _445  and  _446
REMARK  196  A    between atoms: _446  and  _447
REMARK  197  A    between atoms: _447  and  _448
REMARK  198  A    between atoms: _453  and  _454
REMARK  199  A    between atoms: _459  and  _461
REMARK  200  A    between atoms: _461  and  _462
REMARK  201  A    between atoms: _461  and  _464
REMARK  202  A    between atoms: _464  and  _465
REMARK  203  A    between atoms: _465  and  _466
REMARK  204  A    between atoms: _469  and  _471
REMARK  205  A    between atoms: _471  and  _472
REMARK  206  A    between atoms: _471  and  _474
REMARK  207  A    between atoms: _474  and  _475
REMARK  208  A    between atoms: _480  and  _482
REMARK  209  A    between atoms: _482  and  _483
REMARK  210  A    between atoms: _482  and  _485
REMARK  211  A    between atoms: _485  and  _486
REMARK  212  A    between atoms: _489  and  _491
REMARK  213  A    between atoms: _491  and  _492
REMARK  214  A    between atoms: _491  and  _494
REMARK  215  A    between atoms: _494  and  _495
REMARK  216  A    between atoms: _498  and  _500
REMARK  217  A    between atoms: _500  and  _501
REMARK  218  A    between atoms: _500  and  _503
REMARK  219  A    between atoms: _503  and  _504
REMARK  220  A    between atoms: _507  and  _509
REMARK  221  A    between atoms: _509  and  _510
REMARK  222  A    between atoms: _509  and  _512
REMARK  223  A    between atoms: _512  and  _513
REMARK  224  A    between atoms: _513  and  _514
REMARK  225  A    between atoms: _519  and  _521
REMARK  226  A    between atoms: _521  and  _522
REMARK  227  A    between atoms: _521  and  _524
REMARK  228  A    between atoms: _527  and  _529
REMARK  229  A    between atoms: _529  and  _530
REMARK  230  A    between atoms: _529  and  _532
REMARK  231  A    between atoms: _532  and  _533
REMARK  232  A    between atoms: _536  and  _538
REMARK  233  A    between atoms: _538  and  _539
REMARK  234  A    between atoms: _538  and  _541
REMARK  235  A    between atoms: _541  and  _542
REMARK  236  A    between atoms: _545  and  _547
REMARK  237  A    between atoms: _547  and  _548
REMARK  238  A    between atoms: _547  and  _550
REMARK  239  A    between atoms: _550  and  _551
REMARK  240  A    between atoms: _557  and  _559
REMARK  241  A    between atoms: _559  and  _560
REMARK  242  A    between atoms: _562  and  _564
REMARK  243  A    between atoms: _564  and  _565
REMARK  244  A    between atoms: _564  and  _567
REMARK  245  A    between atoms: _567  and  _568
REMARK  246  A    between atoms: _574  and  _576
REMARK  247  A    between atoms: _576  and  _577
REMARK  248  A    between atoms: _576  and  _579
REMARK  249  A    between atoms: _581  and  _583
REMARK  250  A    between atoms: _583  and  _584
REMARK  251  A    between atoms: _586  and  _588
REMARK  252  A    between atoms: _588  and  _589
REMARK  253  A    between atoms: _588  and  _591
REMARK  254  A    between atoms: _591  and  _592
REMARK  255  A    between atoms: _596  and  _597
REMARK  256  A    between atoms: _602  and  _604
REMARK  257  A    between atoms: _604  and  _605
REMARK  258  A    between atoms: _604  and  _607
REMARK  259  A    between atoms: _607  and  _608
REMARK  260  A    between atoms: _613  and  _614
REMARK  261  A    between atoms: _616  and  _618
REMARK  262  A    between atoms: _618  and  _619
REMARK  263  A    between atoms: _618  and  _621
REMARK  264  A    between atoms: _621  and  _622
REMARK  265  A    between atoms: _625  and  _627
REMARK  266  A    between atoms: _627  and  _628
REMARK  267  A    between atoms: _627  and  _630
REMARK  268  A    between atoms: _630  and  _631
REMARK  269  A    between atoms: _636  and  _638
REMARK  270  A    between atoms: _638  and  _639
REMARK  271  A    between atoms: _638  and  _641
REMARK  272  A    between atoms: _641  and  _642
REMARK  273  A    between atoms: _648  and  _650
REMARK  274  A    between atoms: _650  and  _651
REMARK  275  A    between atoms: _650  and  _653
REMARK  276  A    between atoms: _653  and  _654
REMARK  277  A    between atoms: _657  and  _659
REMARK  278  A    between atoms: _659  and  _660
REMARK  279  A    between atoms: _659  and  _662
REMARK  280  A    between atoms: _662  and  _663
REMARK  281  A    between atoms: _668  and  _669
REMARK  282  A    between atoms: _671  and  _673
REMARK  283  A    between atoms: _673  and  _674
REMARK  284  A    between atoms: _673  and  _676
REMARK  285  A    between atoms: _676  and  _677
REMARK  286  A    between atoms: _677  and  _678
REMARK                            x       y       z     vdW  Elec       q    Type
REMARK                         _______ _______ _______ _____ _____    ______ ____
ROOT
ATOM      1  C   VAL A   6      20.665  29.526   9.012  0.00  0.00    +0.244 C 
ATOM      2  O   VAL A   6      21.858  29.624   9.152  0.00  0.00    -0.273 OA
ATOM      3  N   PRO A   7      19.880  30.604   8.814  0.00  0.00    -0.272 N 
ATOM      4  CD  PRO A   7      18.405  30.583   8.632  0.00  0.00    +0.094 C 
ATOM      5  CG  PRO A   7      18.057  32.062   8.348  0.00  0.00    +0.024 C 
ATOM      6  CB  PRO A   7      19.289  32.657   7.822  0.00  0.00    +0.031 C 
ATOM      7  CA  PRO A   7      20.437  31.943   8.574  0.00  0.00    +0.152 C 
ENDROOT
BRANCH   7   8
ATOM      8  C   PRO A   7      20.933  32.784   9.779  0.00  0.00    +0.241 C 
ATOM      9  N   GLY A   8      20.615  32.344  10.985  0.00  0.00    -0.295 N 
ATOM     10  H   GLY A   8      20.084  31.454  11.069  0.00  0.00    +0.150 HD
ATOM     11  O   PRO A   7      21.580  33.820   9.580  0.00  0.00    -0.273 OA
BRANCH   9  12
ATOM     12  CA  GLY A   8      20.974  33.047  12.180  0.00  0.00    +0.176 C 
BRANCH  12  13
ATOM     13  C   GLY A   8      22.434  32.972  12.602  0.00  0.00    +0.243 C 
ATOM     14  O   GLY A   8      22.820  33.669  13.550  0.00  0.00    -0.273 OA
ATOM     15  N   GLY A   9      23.223  32.134  11.923  0.00  0.00    -0.295 N 
ATOM     16  H   GLY A   9      22.793  31.546  11.181  0.00  0.00    +0.150 HD
BRANCH  15  17
ATOM     17  CA  GLY A   9      24.675  31.999  12.171  0.00  0.00    +0.176 C 
BRANCH  17  18
ATOM     18  C   GLY A   9      24.963  31.026  13.311  0.00  0.00    +0.243 C 
ATOM     19  O   GLY A   9      24.045  30.480  13.897  0.00  0.00    -0.273 OA
ATOM     20  N   GLU A  10      26.238  30.840  13.649  0.00  0.00    -0.297 N 
ATOM     21  H   GLU A  10      26.979  31.330  13.108  0.00  0.00    +0.150 HD
BRANCH  20  22
ATOM     22  CA  GLU A  10      26.637  29.951  14.779  0.00  0.00    +0.149 C 
BRANCH  22  23
ATOM     23  C   GLU A  10      26.396  30.573  16.155  0.00  0.00    +0.241 C 
ATOM     24  N   MET A  11      26.124  29.754  17.163  0.00  0.00    -0.297 N 
ATOM     25  H   MET A  11      25.950  28.745  16.982  0.00  0.00    +0.150 HD
ATOM     26  O   GLU A  10      26.503  31.792  16.323  0.00  0.00    -0.273 OA
BRANCH  24  27
ATOM     27  CA  MET A  11      26.070  30.263  18.502  0.00  0.00    +0.149 C 
BRANCH  27  28
ATOM     28  C   MET A  11      27.426  30.856  18.927  0.00  0.00    +0.241 C 
ATOM     29  O   MET A  11      27.488  31.813  19.707  0.00  0.00    -0.273 OA
ATOM     30  N   PHE A  12      28.501  30.265  18.427  0.00  0.00    -0.297 N 
ATOM     31  H   PHE A  12      28.367  29.413  17.846  0.00  0.00    +0.150 HD
BRANCH  30  32
ATOM     32  CA  PHE A  12      29.862  30.742  18.645  0.00  0.00    +0.153 C 
BRANCH  32  33
ATOM     33  C   PHE A  12      30.072  32.260  18.504  0.00  0.00    +0.241 C 
ATOM     34  O   PHE A  12      30.600  32.892  19.437  0.00  0.00    -0.273 OA
ATOM     35  N   SER A  13      29.685  32.813  17.336  0.00  0.00    -0.296 N 
ATOM     36  H   SER A  13      29.305  32.182  16.602  0.00  0.00    +0.150 HD
BRANCH  35  37
ATOM     37  CA  SER A  13      29.766  34.263  17.031  0.00  0.00    +0.166 C 
BRANCH  37  38
ATOM     38  CB  SER A  13      28.961  35.090  18.016  0.00  0.00    +0.229 C 
ATOM     39  OG  SER A  13      29.439  36.083  18.532  0.00  0.00    -0.286 OA
ENDBRANCH  37  38
BRANCH  37  40
ATOM     40  C   SER A  13      29.196  34.594  15.644  0.00  0.00    +0.165 C 
BRANCH  40  41
ATOM     41  O   SER A  13      29.292  33.550  14.719  0.00  0.00    -0.380 OA
ATOM     42  H   SER A  13      28.905  33.840  13.855  0.00  0.00    +0.211 HD
ENDBRANCH  40  41
ENDBRANCH  37  40
ENDBRANCH  35  37
ENDBRANCH  32  33
BRANCH  32  43
ATOM     43  CB  PHE A  12      30.838  29.982  17.721  0.00  0.00    +0.055 C 
BRANCH  43  44
ATOM     44  CG  PHE A  12      32.284  30.420  17.873  0.00  0.00    -0.020 A 
ATOM     45  CD2 PHE A  12      33.121  29.797  18.796  0.00  0.00    -0.004 A 
ATOM     46  CE2 PHE A  12      34.451  30.210  18.936  0.00  0.00    -0.000 A 
ATOM     47  CZ  PHE A  12      34.943  31.225  18.133  0.00  0.00    -0.000 A 
ATOM     48  CE1 PHE A  12      34.118  31.849  17.201  0.00  0.00    -0.000 A 
ATOM     49  CD1 PHE A  12      32.814  31.455  17.072  0.00  0.00    -0.004 A 
ENDBRANCH  43  44
ENDBRANCH  32  43
ENDBRANCH  30  32
ENDBRANCH  27  28
BRANCH  27  50
ATOM     50  CB  MET A  11      25.642  29.162  19.459  0.00  0.00    +0.041 C 
BRANCH  50  51
ATOM     51  CG  MET A  11      25.871  29.495  20.943  0.00  0.00    +0.060 C 
BRANCH  51  52
ATOM     52  SD  MET A  11      25.690  28.086  22.050  0.00  0.00    -0.139 S 
ATOM     53  CE  MET A  11      24.003  27.611  21.690  0.00  0.00    +0.069 C 
ENDBRANCH  51  52
ENDBRANCH  50  51
ENDBRANCH  27  50
ENDBRANCH  24  27
ENDBRANCH  22  23
BRANCH  22  54
ATOM     54  CB  GLU A  10      28.118  29.600  14.672  0.00  0.00    +0.041 C 
BRANCH  54  55
ATOM     55  CG  GLU A  10      28.575  29.165  13.356  0.00  0.00    +0.116 C 
BRANCH  55  56
ATOM     56  CD  GLU A  10      30.106  29.106  13.276  0.00  0.00    +0.365 C 
ATOM     57  OE2 GLU A  10      30.755  29.385  14.309  0.00  0.00    -0.246 OA
ATOM     58  OE1 GLU A  10      30.663  28.758  12.196  0.00  0.00    -0.246 OA
ENDBRANCH  55  56
ENDBRANCH  54  55
ENDBRANCH  22  54
ENDBRANCH  20  22
ENDBRANCH  17  18
ENDBRANCH  15  17
ENDBRANCH  12  13
ENDBRANCH   9  12
ENDBRANCH   7   8
BRANCH   1  59
ATOM     59  CA  VAL A   6      19.995  28.129   8.943  0.00  0.00    +0.149 C 
BRANCH  59  61
ATOM     60  C   TYR A   5      19.502  27.460   6.605  0.00  0.00    +0.241 C 
ATOM     61  N   VAL A   6      20.354  27.559   7.632  0.00  0.00    -0.297 N 
ATOM     62  H   VAL A   6      21.326  27.214   7.497  0.00  0.00    +0.150 HD
ATOM     63  O   TYR A   5      18.343  27.890   6.637  0.00  0.00    -0.273 OA
BRANCH  60  64
ATOM     64  CA  TYR A   5      20.048  26.873   5.292  0.00  0.00    +0.153 C 
BRANCH  64  67
ATOM     65  C   GLU A   4      19.340  24.561   5.397  0.00  0.00    +0.241 C 
ATOM     66  O   GLU A   4      20.079  24.326   6.348  0.00  0.00    -0.273 OA
ATOM     67  N   TYR A   5      19.244  25.767   4.858  0.00  0.00    -0.297 N 
ATOM     68  H   TYR A   5      18.559  25.918   4.090  0.00  0.00    +0.150 HD
BRANCH  65  69
ATOM     69  CA  GLU A   4      18.452  23.466   4.766  0.00  0.00    +0.149 C 
BRANCH  69  71
ATOM     70  C   MET A   3      20.341  22.267   3.922  0.00  0.00    +0.241 C 
ATOM     71  N   GLU A   4      19.192  22.237   4.565  0.00  0.00    -0.297 N 
ATOM     72  H   GLU A   4      18.818  21.336   4.926  0.00  0.00    +0.150 HD
ATOM     73  O   MET A   3      20.687  23.245   3.235  0.00  0.00    -0.273 OA
BRANCH  70  74
ATOM     74  CA  MET A   3      21.238  21.024   4.078  0.00  0.00    +0.149 C 
BRANCH  74  76
ATOM     75  C   VAL A   2      21.866  19.976   1.961  0.00  0.00    +0.241 C 
ATOM     76  N   MET A   3      22.108  20.864   2.935  0.00  0.00    -0.297 N 
ATOM     77  H   MET A   3      22.956  21.462   2.866  0.00  0.00    +0.150 HD
ATOM     78  O   VAL A   2      20.864  19.230   1.928  0.00  0.00    -0.273 OA
BRANCH  75  79
ATOM     79  CA  VAL A   2      22.938  19.875   0.892  0.00  0.00    +0.148 C 
BRANCH  79  82
ATOM     80  C   MET A   1      24.853  18.561   1.598  0.00  0.00    +0.238 C 
ATOM     81  O   MET A   1      25.399  19.527   2.134  0.00  0.00    -0.274 OA
ATOM     82  N   VAL A   2      23.629  18.613   1.077  0.00  0.00    -0.297 N 
ATOM     83  H   VAL A   2      23.158  17.729   0.796  0.00  0.00    +0.150 HD
BRANCH  80  84
ATOM     84  CA  MET A   1      25.591  17.234   1.470  0.00  0.00    +0.146 C 
BRANCH  84  85
ATOM     85  N   MET A   1      26.711  17.384   0.531  0.00  0.00    -0.238 NA
ATOM     86  H   MET A   1      27.382  18.165   0.674  0.00  0.00    +0.142 HD
ENDBRANCH  84  85
BRANCH  84  87
ATOM     87  CB  MET A   1      26.080  16.737   2.841  0.00  0.00    +0.038 C 
BRANCH  87  88
ATOM     88  CG  MET A   1      26.101  15.213   2.938  0.00  0.00    +0.060 C 
BRANCH  88  89
ATOM     89  SD  MET A   1      27.001  14.609   4.391  0.00  0.00    -0.139 S 
ATOM     90  CE  MET A   1      28.657  15.196   4.111  0.00  0.00    +0.069 C 
ENDBRANCH  88  89
ENDBRANCH  87  88
ENDBRANCH  84  87
ENDBRANCH  80  84
ENDBRANCH  79  82
BRANCH  79  91
ATOM     91  CB  VAL A   2      22.349  20.023  -0.547  0.00  0.00    +0.027 C 
ATOM     92  CG2 VAL A   2      21.622  21.349  -0.725  0.00  0.00    +0.002 C 
ATOM     93  CG1 VAL A   2      23.446  19.858  -1.653  0.00  0.00    +0.002 C 
ENDBRANCH  79  91
ENDBRANCH  75  79
ENDBRANCH  74  76
BRANCH  74  94
ATOM     94  CB  MET A   3      22.038  21.170   5.379  0.00  0.00    +0.041 C 
BRANCH  94  95
ATOM     95  CG  MET A   3      22.887  19.969   5.792  0.00  0.00    +0.060 C 
BRANCH  95  96
ATOM     96  SD  MET A   3      24.170  20.562   6.939  0.00  0.00    -0.139 S 
ATOM     97  CE  MET A   3      25.433  21.170   5.804  0.00  0.00    +0.069 C 
ENDBRANCH  95  96
ENDBRANCH  94  95
ENDBRANCH  74  94
ENDBRANCH  70  74
ENDBRANCH  69  71
BRANCH  69  98
ATOM     98  CB  GLU A   4      17.266  23.201   5.678  0.00  0.00    +0.041 C 
BRANCH  98  99
ATOM     99  CG  GLU A   4      16.093  22.529   5.016  0.00  0.00    +0.116 C 
BRANCH  99 100
ATOM    100  CD  GLU A   4      14.817  22.814   5.797  0.00  0.00    +0.365 C 
ATOM    101  OE2 GLU A   4      14.417  21.973   6.635  0.00  0.00    -0.246 OA
ATOM    102  OE1 GLU A   4      14.225  23.897   5.583  0.00  0.00    -0.246 OA
ENDBRANCH  99 100
ENDBRANCH  98  99
ENDBRANCH  69  98
ENDBRANCH  65  69
ENDBRANCH  64  67
BRANCH  64 103
ATOM    103  CB  TYR A   5      20.036  27.962   4.203  0.00  0.00    +0.055 C 
BRANCH 103 104
ATOM    104  CG  TYR A   5      20.776  29.225   4.603  0.00  0.00    -0.020 A 
ATOM    105  CD2 TYR A   5      22.070  29.143   5.144  0.00  0.00    -0.001 A 
ATOM    106  CE2 TYR A   5      22.771  30.303   5.547  0.00  0.00    +0.036 A 
ATOM    107  CZ  TYR A   5      22.174  31.550   5.389  0.00  0.00    +0.134 A 
ATOM    108  CE1 TYR A   5      20.874  31.663   4.855  0.00  0.00    +0.036 A 
ATOM    109  CD1 TYR A   5      20.182  30.492   4.472  0.00  0.00    -0.001 A 
BRANCH 107 110
ATOM    110  OH  TYR A   5      22.908  32.661   5.736  0.00  0.00    -0.506 OA
ATOM    111  HH  TYR A   5      23.040  33.230   4.937  0.00  0.00    +0.292 HD
ENDBRANCH 107 110
ENDBRANCH 103 104
ENDBRANCH  64 103
ENDBRANCH  60  64
ENDBRANCH  59  61
BRANCH  59 112
ATOM    112  CB  VAL A   6      20.455  27.201  10.132  0.00  0.00    +0.027 C 
ATOM    113  CG2 VAL A   6      19.931  27.676  11.446  0.00  0.00    +0.002 C 
ATOM    114  CG1 VAL A   6      20.025  25.753   9.914  0.00  0.00    +0.002 C 
ENDBRANCH  59 112
ENDBRANCH   1  59
TORSDOF 49
REMARK  Name = ../refined-set-2016/3bwj/3bwj_pocket.pdb
REMARK  286 active torsions:
REMARK  status: ('A' for Active; 'I' for Inactive)
REMARK    1  A    between atoms: _1  and  _3
REMARK    2  A    between atoms: _3  and  _4
REMARK    3  A    between atoms: _3  and  _6
REMARK    4  A    between atoms: _6  and  _7
REMARK    5  A    between atoms: _10  and  _12
REMARK    6  A    between atoms: _12  and  _13
REMARK    7  A    between atoms: _12  and  _15
REMARK    8  A    between atoms: _15  and  _16
REMARK    9  A    between atoms: _19  and  _21
REMARK   10  A    between atoms: _21  and  _22
REMARK   11  A    between atoms: _24  and  _26
REMARK   12  A    between atoms: _26  and  _27
REMARK   13  A    between atoms: _26  and  _29
REMARK   14  A    between atoms: _29  and  _30
REMARK   15  A    between atoms: _33  and  _35
REMARK   16  A    between atoms: _35  and  _36
REMARK   17  A    between atoms: _38  and  _40
REMARK   18  A    between atoms: _40  and  _41
REMARK   19  A    between atoms: _40  and  _43
REMARK   20  A    between atoms: _43  and  _44
REMARK   21  A    between atoms: _46  and  _48
REMARK   22  A    between atoms: _48  and  _49
REMARK   23  A    between atoms: _48  and  _51
REMARK   24  A    between atoms: _51  and  _52
REMARK   25  A    between atoms: _58  and  _60
REMARK   26  A    between atoms: _60  and  _61
REMARK   27  A    between atoms: _63  and  _65
REMARK   28  A    between atoms: _65  and  _66
REMARK   29  A    between atoms: _65  and  _68
REMARK   30  A    between atoms: _68  and  _69
REMARK   31  A    between atoms: _69  and  _70
REMARK   32  A    between atoms: _70  and  _71
REMARK   33  A    between atoms: _80  and  _82
REMARK   34  A    between atoms: _82  and  _83
REMARK   35  A    between atoms: _82  and  _85
REMARK   36  A    between atoms: _88  and  _90
REMARK   37  A    between atoms: _90  and  _91
REMARK   38  A    between atoms: _90  and  _93
REMARK   39  A    between atoms: _93  and  _94
REMARK   40  A    between atoms: _94  and  _95
REMARK   41  A    between atoms: _97  and  _99
REMARK   42  A    between atoms: _99  and  _100
REMARK   43  A    between atoms: _99  and  _102
REMARK   44  A    between atoms: _102  and  _103
REMARK   45  A    between atoms: _106  and  _108
REMARK   46  A    between atoms: _108  and  _109
REMARK   47  A    between atoms: _108  and  _111
REMARK   48  A    between atoms: _111  and  _112
REMARK   49  A    between atoms: _117  and  _118
REMARK   50  A    between atoms: _120  and  _122
REMARK   51  A    between atoms: _122  and  _123
REMARK   52  A    between atoms: _126  and  _128
REMARK   53  A    between atoms: _128  and  _129
REMARK   54  A    between atoms: _128  and  _131
REMARK   55  A    between atoms: _131  and  _132
REMARK   56  A    between atoms: _132  and  _133
REMARK   57  A    between atoms: _135  and  _137
REMARK   58  A    between atoms: _137  and  _138
REMARK   59  A    between atoms: _137  and  _140
REMARK   60  A    between atoms: _140  and  _141
REMARK   61  A    between atoms: _141  and  _142
REMARK   62  A    between atoms: _142  and  _143
REMARK   63  A    between atoms: _143  and  _144
REMARK   64  A    between atoms: _148  and  _150
REMARK   65  A    between atoms: _150  and  _151
REMARK   66  A    between atoms: _150  and  _153
REMARK   67  A    between atoms: _153  and  _154
REMARK   68  A    between atoms: _157  and  _159
REMARK   69  A    between atoms: _159  and  _160
REMARK   70  A    between atoms: _159  and  _162
REMARK   71  A    between atoms: _162  and  _163
REMARK   72  A    between atoms: _166  and  _168
REMARK   73  A    between atoms: _168  and  _169
REMARK   74  A    between atoms: _168  and  _171
REMARK   75  A    between atoms: _171  and  _172
REMARK   76  A    between atoms: _175  and  _177
REMARK   77  A    between atoms: _177  and  _178
REMARK   78  A    between atoms: _177  and  _180
REMARK   79  A    between atoms: _180  and  _181
REMARK   80  A    between atoms: _181  and  _182
REMARK   81  A    between atoms: _182  and  _183
REMARK   82  A    between atoms: _183  and  _184
REMARK   83  A    between atoms: _188  and  _190
REMARK   84  A    between atoms: _190  and  _191
REMARK   85  A    between atoms: _190  and  _193
REMARK   86  A    between atoms: _196  and  _198
REMARK   87  A    between atoms: _198  and  _199
REMARK   88  A    between atoms: _198  and  _201
REMARK   89  A    between atoms: _201  and  _202
REMARK   90  A    between atoms: _205  and  _207
REMARK   91  A    between atoms: _207  and  _208
REMARK   92  A    between atoms: _207  and  _210
REMARK   93  A    between atoms: _210  and  _211
REMARK   94  A    between atoms: _211  and  _212
REMARK   95  A    between atoms: _217  and  _219
REMARK   96  A    between atoms: _219  and  _220
REMARK   97  A    between atoms: _219  and  _222
REMARK   98  A    between atoms: _222  and  _223
REMARK   99  A    between atoms: _226  and  _228
REMARK  100  A    between atoms: _228  and  _229
REMARK  101  A    between atoms: _228  and  _231
REMARK  102  A    between atoms: _231  and  _232
REMARK  103  A    between atoms: _232  and  _233
REMARK  104  A    between atoms: _236  and  _238
REMARK  105  A    between atoms: _238  and  _239
REMARK  106  A    between atoms: _238  and  _241
REMARK  107  A    between atoms: _244  and  _246
REMARK  108  A    between atoms: _246  and  _247
REMARK  109  A    between atoms: _246  and  _249
REMARK  110  A    between atoms: _249  and  _250
REMARK  111  A    between atoms: _250  and  _251
REMARK  112  A    between atoms: _251  and  _252
REMARK  113  A    between atoms: _252  and  _253
REMARK  114  A    between atoms: _257  and  _259
REMARK  115  A    between atoms: _259  and  _260
REMARK  116  A    between atoms: _259  and  _262
REMARK  117  A    between atoms: _262  and  _263
REMARK  118  A    between atoms: _266  and  _268
REMARK  119  A    between atoms: _268  and  _269
REMARK  120  A    between atoms: _268  and  _271
REMARK  121  A    between atoms: _271  and  _272
REMARK  122  A    between atoms: _272  and  _273
REMARK  123  A    between atoms: _276  and  _278
REMARK  124  A    between atoms: _278  and  _279
REMARK  125  A    between atoms: _278  and  _281
REMARK  126  A    between atoms: _281  and  _282
REMARK  127  A    between atoms: _282  and  _283
REMARK  128  A    between atoms: _285  and  _287
REMARK  129  A    between atoms: _287  and  _288
REMARK  130  A    between atoms: _287  and  _290
REMARK  131  A    between atoms: _293  and  _295
REMARK  132  A    between atoms: _295  and  _296
REMARK  133  A    between atoms: _295  and  _298
REMARK  134  A    between atoms: _298  and  _299
REMARK  135  A    between atoms: _299  and  _300
REMARK  136  A    between atoms: _302  and  _304
REMARK  137  A    between atoms: _304  and  _305
REMARK  138  A    between atoms: _304  and  _307
REMARK  139  A    between atoms: _307  and  _308
REMARK  140  A    between atoms: _308  and  _309
REMARK  141  A    between atoms: _312  and  _314
REMARK  142  A    between atoms: _314  and  _315
REMARK  143  A    between atoms: _314  and  _317
REMARK  144  A    between atoms: _317  and  _318
REMARK  145  A    between atoms: _323  and  _324
REMARK  146  A    between atoms: _326  and  _328
REMARK  147  A    between atoms: _328  and  _329
REMARK  148  A    between atoms: _328  and  _331
REMARK  149  A    between atoms: _335  and  _336
REMARK  150  A    between atoms: _341  and  _343
REMARK  151  A    between atoms: _343  and  _344
REMARK  152  A    between atoms: _346  and  _348
REMARK  153  A    between atoms: _348  and  _349
REMARK  154  A    between atoms: _351  and  _353
REMARK  155  A    between atoms: _353  and  _354
REMARK  156  A    between atoms: _353  and  _356
REMARK  157  A    between atoms: _356  and  _357
REMARK  158  A    between atoms: _357  and  _358
REMARK  159  A    between atoms: _361  and  _363
REMARK  160  A    between atoms: _363  and  _364
REMARK  161  A    between atoms: _363  and  _366
REMARK  162  A    between atoms: _366  and  _367
REMARK  163  A    between atoms: _367  and  _368
REMARK  164  A    between atoms: _370  and  _372
REMARK  165  A    between atoms: _372  and  _373
REMARK  166  A    between atoms: _372  and  _375
REMARK  167  A    between atoms: _375  and  _376
REMARK  168  A    between atoms: _382  and  _384
REMARK  169  A    between atoms: _384  and  _385
REMARK  170  A    between atoms: _384  and  _387
REMARK  171  A    between atoms: _387  and  _388
REMARK  172  A    between atoms: _390  and  _392
REMARK  173  A    between atoms: _392  and  _393
REMARK  174  A    between atoms: _392  and  _395
REMARK  175  A    between atoms: _395  and  _396
REMARK  176  A    between atoms: _401  and  _402
REMARK  177  A    between atoms: _404  and  _406
REMARK  178  A    between atoms: _406  and  _407
REMARK  179  A    between atoms: _406  and  _409
REMARK  180  A    between atoms: _409  and  _410
REMARK  181  A    between atoms: _410  and  _411
REMARK  182  A    between atoms: _411  and  _412
REMARK  183  A    between atoms: _421  and  _423
REMARK  184  A    between atoms: _423  and  _424
REMARK  185  A    between atoms: _423  and  _426
REMARK  186  A    between atoms: _426  and  _427
REMARK  187  A    between atoms: _430  and  _432
REMARK  188  A    between atoms: _432  and  _433
REMARK  189  A    between atoms: _432  and  _435
REMARK  190  A    between atoms: _435  and  _436
REMARK  191  A    between atoms: _439  and  _441
REMARK  192  A    between atoms: _441  and  _442
REMARK  193  A    between atoms: _441  and  _444
REMARK  194  A    between atoms: _444  and  _445
REMARK  195  A    between atoms: _445  and  _446
REMARK  196  A    between atoms: _446  and  _447
REMARK  197  A    between atoms: _447  and  _448
REMARK  198  A    between atoms: _453  and  _454
REMARK  199  A    between atoms: _459  and  _461
REMARK  200  A    between atoms: _461  and  _462
REMARK  201  A    between atoms: _461  and  _464
REMARK  202  A    between atoms: _464  and  _465
REMARK  203  A    between atoms: _465  and  _466
REMARK  204  A    between atoms: _469  and  _471
REMARK  205  A    between atoms: _471  and  _472
REMARK  206  A    between atoms: _471  and  _474
REMARK  207  A    between atoms: _474  and  _475
REMARK  208  A    between atoms: _480  and  _482
REMARK  209  A    between atoms: _482  and  _483
REMARK  210  A    between atoms: _482  and  _485
REMARK  211  A    between atoms: _485  and  _486
REMARK  212  A    between atoms: _489  and  _491
REMARK  213  A    between atoms: _491  and  _492
REMARK  214  A    between atoms: _491  and  _494
REMARK  215  A    between atoms: _494  and  _495
REMARK  216  A    between atoms: _498  and  _500
REMARK  217  A    between atoms: _500  and  _501
REMARK  218  A    between atoms: _500  and  _503
REMARK  219  A    between atoms: _503  and  _504
REMARK  220  A    between atoms: _507  and  _509
REMARK  221  A    between atoms: _509  and  _510
REMARK  222  A    between atoms: _509  and  _512
REMARK  223  A    between atoms: _512  and  _513
REMARK  224  A    between atoms: _513  and  _514
REMARK  225  A    between atoms: _519  and  _521
REMARK  226  A    between atoms: _521  and  _522
REMARK  227  A    between atoms: _521  and  _524
REMARK  228  A    between atoms: _527  and  _529
REMARK  229  A    between atoms: _529  and  _530
REMARK  230  A    between atoms: _529  and  _532
REMARK  231  A    between atoms: _532  and  _533
REMARK  232  A    between atoms: _536  and  _538
REMARK  233  A    between atoms: _538  and  _539
REMARK  234  A    between atoms: _538  and  _541
REMARK  235  A    between atoms: _541  and  _542
REMARK  236  A    between atoms: _545  and  _547
REMARK  237  A    between atoms: _547  and  _548
REMARK  238  A    between atoms: _547  and  _550
REMARK  239  A    between atoms: _550  and  _551
REMARK  240  A    between atoms: _557  and  _559
REMARK  241  A    between atoms: _559  and  _560
REMARK  242  A    between atoms: _562  and  _564
REMARK  243  A    between atoms: _564  and  _565
REMARK  244  A    between atoms: _564  and  _567
REMARK  245  A    between atoms: _567  and  _568
REMARK  246  A    between atoms: _574  and  _576
REMARK  247  A    between atoms: _576  and  _577
REMARK  248  A    between atoms: _576  and  _579
REMARK  249  A    between atoms: _581  and  _583
REMARK  250  A    between atoms: _583  and  _584
REMARK  251  A    between atoms: _586  and  _588
REMARK  252  A    between atoms: _588  and  _589
REMARK  253  A    between atoms: _588  and  _591
REMARK  254  A    between atoms: _591  and  _592
REMARK  255  A    between atoms: _596  and  _597
REMARK  256  A    between atoms: _602  and  _604
REMARK  257  A    between atoms: _604  and  _605
REMARK  258  A    between atoms: _604  and  _607
REMARK  259  A    between atoms: _607  and  _608
REMARK  260  A    between atoms: _613  and  _614
REMARK  261  A    between atoms: _616  and  _618
REMARK  262  A    between atoms: _618  and  _619
REMARK  263  A    between atoms: _618  and  _621
REMARK  264  A    between atoms: _621  and  _622
REMARK  265  A    between atoms: _625  and  _627
REMARK  266  A    between atoms: _627  and  _628
REMARK  267  A    between atoms: _627  and  _630
REMARK  268  A    between atoms: _630  and  _631
REMARK  269  A    between atoms: _636  and  _638
REMARK  270  A    between atoms: _638  and  _639
REMARK  271  A    between atoms: _638  and  _641
REMARK  272  A    between atoms: _641  and  _642
REMARK  273  A    between atoms: _648  and  _650
REMARK  274  A    between atoms: _650  and  _651
REMARK  275  A    between atoms: _650  and  _653
REMARK  276  A    between atoms: _653  and  _654
REMARK  277  A    between atoms: _657  and  _659
REMARK  278  A    between atoms: _659  and  _660
REMARK  279  A    between atoms: _659  and  _662
REMARK  280  A    between atoms: _662  and  _663
REMARK  281  A    between atoms: _668  and  _669
REMARK  282  A    between atoms: _671  and  _673
REMARK  283  A    between atoms: _673  and  _674
REMARK  284  A    between atoms: _673  and  _676
REMARK  285  A    between atoms: _676  and  _677
REMARK  286  A    between atoms: _677  and  _678
REMARK                            x       y       z     vdW  Elec       q    Type
REMARK                         _______ _______ _______ _____ _____    ______ ____
ROOT
ATOM      1  CA  LYS A   5      30.479  22.981  20.650  0.00  0.00    +0.149 C 
ENDROOT
BRANCH   1   2
ATOM      2  C   LYS A   5      29.643  24.063  19.965  0.00  0.00    +0.244 C 
ATOM      3  N   PRO A   6      29.787  25.317  20.384  0.00  0.00    -0.272 N 
ATOM      4  CD  PRO A   6      30.668  25.745  21.492  0.00  0.00    +0.094 C 
ATOM      5  CG  PRO A   6      30.068  27.114  21.874  0.00  0.00    +0.024 C 
ATOM      6  CB  PRO A   6      29.730  27.658  20.565  0.00  0.00    +0.031 C 
ATOM      7  CA  PRO A   6      29.033  26.458  19.866  0.00  0.00    +0.152 C 
ATOM      8  O   LYS A   5      28.847  23.751  19.096  0.00  0.00    -0.273 OA
BRANCH   7   9
ATOM      9  C   PRO A   6      29.056  26.640  18.359  0.00  0.00    +0.241 C 
ATOM     10  O   PRO A   6      28.053  27.063  17.780  0.00  0.00    -0.273 OA
ATOM     11  N   GLU A   7      30.189  26.333  17.735  0.00  0.00    -0.297 N 
ATOM     12  H   GLU A   7      31.008  26.041  18.305  0.00  0.00    +0.150 HD
BRANCH  11  13
ATOM     13  CA  GLU A   7      30.330  26.387  16.304  0.00  0.00    +0.149 C 
BRANCH  13  14
ATOM     14  C   GLU A   7      29.331  25.479  15.562  0.00  0.00    +0.241 C 
ATOM     15  N   ASN A   8      28.932  24.371  16.159  0.00  0.00    -0.297 N 
ATOM     16  H   ASN A   8      29.279  24.145  17.113  0.00  0.00    +0.150 HD
ATOM     17  O   GLU A   7      28.956  25.761  14.438  0.00  0.00    -0.273 OA
BRANCH  15  18
ATOM     18  CA  ASN A   8      27.993  23.447  15.478  0.00  0.00    +0.158 C 
BRANCH  18  19
ATOM     19  C   ASN A   8      26.510  23.710  15.778  0.00  0.00    +0.241 C 
ATOM     20  N   LEU A   9      26.274  24.731  16.598  0.00  0.00    -0.297 N 
ATOM     21  H   LEU A   9      27.080  25.281  16.958  0.00  0.00    +0.150 HD
ATOM     22  O   ASN A   8      25.623  23.002  15.292  0.00  0.00    -0.273 OA
BRANCH  20  23
ATOM     23  CA  LEU A   9      24.925  25.109  17.012  0.00  0.00    +0.149 C 
BRANCH  23  24
ATOM     24  C   LEU A   9      24.494  26.376  16.280  0.00  0.00    +0.241 C 
ATOM     25  O   LEU A   9      25.002  27.447  16.531  0.00  0.00    -0.273 OA
ATOM     26  N   LEU A  10      23.545  26.226  15.372  0.00  0.00    -0.297 N 
ATOM     27  H   LEU A  10      23.039  25.319  15.314  0.00  0.00    +0.150 HD
BRANCH  26  28
ATOM     28  CA  LEU A  10      23.192  27.290  14.457  0.00  0.00    +0.149 C 
BRANCH  28  29
ATOM     29  C   LEU A  10      21.859  27.814  14.956  0.00  0.00    +0.241 C 
ATOM     30  O   LEU A  10      21.057  27.029  15.414  0.00  0.00    -0.273 OA
ATOM     31  N   ILE A  11      21.645  29.131  14.886  0.00  0.00    -0.298 N 
ATOM     32  H   ILE A  11      22.375  29.731  14.451  0.00  0.00    +0.150 HD
BRANCH  31  33
ATOM     33  CA  ILE A  11      20.435  29.764  15.392  0.00  0.00    +0.137 C 
BRANCH  33  34
ATOM     34  C   ILE A  11      19.512  29.931  14.193  0.00  0.00    +0.227 C 
ATOM     35  O   ILE A  11      19.926  30.457  13.161  0.00  0.00    -0.286 OA
ENDBRANCH  33  34
BRANCH  33  36
ATOM     36  CB  ILE A  11      20.733  31.156  16.061  0.00  0.00    +0.026 C 
ATOM     37  CG2 ILE A  11      19.559  31.643  16.885  0.00  0.00    +0.002 C 
BRANCH  36  38
ATOM     38  CG1 ILE A  11      21.922  31.102  17.029  0.00  0.00    +0.002 C 
ATOM     39  CD1 ILE A  11      21.745  30.076  18.150  0.00  0.00    +0.000 C 
ENDBRANCH  36  38
ENDBRANCH  33  36
ENDBRANCH  31  33
ENDBRANCH  28  29
BRANCH  28  40
ATOM     40  CB  LEU A  10      23.038  26.697  13.067  0.00  0.00    +0.029 C 
BRANCH  40  41
ATOM     41  CG  LEU A  10      24.139  26.525  12.018  0.00  0.00    +0.002 C 
ATOM     42  CD2 LEU A  10      25.604  26.574  12.550  0.00  0.00    +0.000 C 
ATOM     43  CD1 LEU A  10      23.809  25.274  11.245  0.00  0.00    +0.000 C 
ENDBRANCH  40  41
ENDBRANCH  28  40
ENDBRANCH  26  28
ENDBRANCH  23  24
BRANCH  23  44
ATOM     44  CB  LEU A   9      24.821  25.263  18.547  0.00  0.00    +0.029 C 
BRANCH  44  45
ATOM     45  CG  LEU A   9      25.419  24.096  19.356  0.00  0.00    +0.002 C 
ATOM     46  CD2 LEU A   9      25.371  24.339  20.832  0.00  0.00    +0.000 C 
ATOM     47  CD1 LEU A   9      24.722  22.757  19.042  0.00  0.00    +0.000 C 
ENDBRANCH  44  45
ENDBRANCH  23  44
ENDBRANCH  20  23
ENDBRANCH  18  19
BRANCH  18  48
ATOM     48  CB  ASN A   8      28.369  22.021  15.844  0.00  0.00    +0.114 C 
BRANCH  48  49
ATOM     49  CG  ASN A   8      29.662  21.570  15.150  0.00  0.00    +0.222 C 
ATOM     50  ND2 ASN A   8      30.214  20.489  15.606  0.00  0.00    -0.329 N 
ATOM     51 HD21 ASN A   8      29.785  19.984  16.408  0.00  0.00    +0.145 HD
ATOM     52 HD22 ASN A   8      31.086  20.127  15.170  0.00  0.00    +0.145 HD
ATOM     53  OD1 ASN A   8      30.128  22.201  14.208  0.00  0.00    -0.275 OA
ENDBRANCH  48  49
ENDBRANCH  18  48
ENDBRANCH  15  18
ENDBRANCH  13  14
BRANCH  13  54
ATOM     54  CB  GLU A   7      31.767  25.996  15.908  0.00  0.00    +0.041 C 
BRANCH  54  55
ATOM     55  CG  GLU A   7      32.855  26.977  16.337  0.00  0.00    +0.116 C 
BRANCH  55  56
ATOM     56  CD  GLU A   7      33.526  26.557  17.623  0.00  0.00    +0.365 C 
ATOM     57  OE2 GLU A   7      32.842  26.215  18.584  0.00  0.00    -0.246 OA
ATOM     58  OE1 GLU A   7      34.762  26.533  17.667  0.00  0.00    -0.246 OA
ENDBRANCH  55  56
ENDBRANCH  54  55
ENDBRANCH  13  54
ENDBRANCH  11  13
ENDBRANCH   7   9
ENDBRANCH   1   2
BRANCH   1  61
ATOM     59  C   LEU A   4      30.104  20.542  20.883  0.00  0.00    +0.241 C 
ATOM     60  O   LEU A   4      31.195  20.319  21.426  0.00  0.00    -0.273 OA
ATOM     61  N   LYS A   5      29.704  21.738  20.467  0.00  0.00    -0.297 N 
ATOM     62  H   LYS A   5      28.787  21.803  19.982  0.00  0.00    +0.150 HD
BRANCH  59  63
ATOM     63  CA  LEU A   4      29.150  19.399  20.639  0.00  0.00    +0.149 C 
BRANCH  63  65
ATOM     64  C   ASP A   3      30.415  18.310  18.881  0.00  0.00    +0.241 C 
ATOM     65  N   LEU A   4      29.926  18.256  20.096  0.00  0.00    -0.297 N 
ATOM     66  H   LEU A   4      30.082  17.410  20.681  0.00  0.00    +0.150 HD
ATOM     67  O   ASP A   3      30.317  19.324  18.190  0.00  0.00    -0.273 OA
BRANCH  64  68
ATOM     68  CA  ASP A   3      31.133  17.077  18.367  0.00  0.00    +0.160 C 
BRANCH  68  71
ATOM     69  C   ARG A   2      31.285  14.803  19.114  0.00  0.00    +0.241 C 
ATOM     70  O   ARG A   2      32.485  14.840  18.968  0.00  0.00    -0.273 OA
ATOM     71  N   ASP A   3      30.521  15.826  18.786  0.00  0.00    -0.297 N 
ATOM     72  H   ASP A   3      29.485  15.739  18.827  0.00  0.00    +0.150 HD
BRANCH  69  73
ATOM     73  CA  ARG A   2      30.635  13.536  19.653  0.00  0.00    +0.149 C 
BRANCH  73  75
ATOM     74  C   TYR A   1      28.520  13.206  18.393  0.00  0.00    +0.239 C 
ATOM     75  N   ARG A   2      29.184  13.416  19.529  0.00  0.00    -0.297 N 
ATOM     76  H   ARG A   2      28.623  13.502  20.400  0.00  0.00    +0.150 HD
ATOM     77  O   TYR A   1      29.021  13.313  17.271  0.00  0.00    -0.274 OA
BRANCH  74  78
ATOM     78  CA  TYR A   1      27.039  12.833  18.559  0.00  0.00    +0.149 C 
BRANCH  78  79
ATOM     79  N   TYR A   1      26.822  11.644  19.431  0.00  0.00    -0.238 NA
ATOM     80  H   TYR A   1      26.635  11.781  20.445  0.00  0.00    +0.142 HD
ENDBRANCH  78  79
BRANCH  78  81
ATOM     81  CB  TYR A   1      26.200  14.042  19.025  0.00  0.00    +0.053 C 
BRANCH  81  82
ATOM     82  CG  TYR A   1      26.495  15.315  18.255  0.00  0.00    -0.020 A 
ATOM     83  CD2 TYR A   1      27.022  16.434  18.906  0.00  0.00    -0.001 A 
ATOM     84  CE2 TYR A   1      27.300  17.609  18.211  0.00  0.00    +0.036 A 
ATOM     85  CZ  TYR A   1      27.114  17.662  16.831  0.00  0.00    +0.134 A 
ATOM     86  CE1 TYR A   1      26.632  16.565  16.143  0.00  0.00    +0.036 A 
ATOM     87  CD1 TYR A   1      26.314  15.385  16.872  0.00  0.00    -0.001 A 
BRANCH  85  88
ATOM     88  OH  TYR A   1      27.430  18.821  16.165  0.00  0.00    -0.506 OA
ATOM     89  HH  TYR A   1      27.245  18.706  15.199  0.00  0.00    +0.292 HD
ENDBRANCH  85  88
ENDBRANCH  81  82
ENDBRANCH  78  81
ENDBRANCH  74  78
ENDBRANCH  73  75
BRANCH  73  90
ATOM     90  CB  ARG A   2      31.343  12.323  19.045  0.00  0.00    +0.033 C 
BRANCH  90  91
ATOM     91  CG  ARG A   2      30.977  10.982  19.686  0.00  0.00    +0.045 C 
BRANCH  91  92
ATOM     92  CD  ARG A   2      32.064   9.965  19.418  0.00  0.00    +0.174 C 
BRANCH  92  93
ATOM     93  NE  ARG A   2      32.057   9.650  17.997  0.00  0.00    -0.265 N 
ATOM     94  CZ  ARG A   2      32.658   8.595  17.453  0.00  0.00    +0.342 C 
ATOM     95  NH2 ARG A   2      33.327   7.743  18.217  0.00  0.00    -0.292 N 
ATOM     96 HH21 ARG A   2      33.383   7.899  19.244  0.00  0.00    +0.255 HD
ATOM     97 HH22 ARG A   2      33.796   6.919  17.790  0.00  0.00    +0.255 HD
ATOM     98  NH1 ARG A   2      32.575   8.393  16.152  0.00  0.00    -0.292 N 
ATOM     99 HH11 ARG A   2      33.043   7.570  15.723  0.00  0.00    +0.255 HD
ATOM    100 HH12 ARG A   2      32.041   9.057  15.556  0.00  0.00    +0.255 HD
ATOM    101  HE  ARG A   2      31.546  10.296  17.362  0.00  0.00    +0.259 HD
ENDBRANCH  92  93
ENDBRANCH  91  92
ENDBRANCH  90  91
ENDBRANCH  73  90
ENDBRANCH  69  73
ENDBRANCH  68  71
BRANCH  68 102
ATOM    102  CB  ASP A   3      31.260  17.105  16.831  0.00  0.00    +0.143 C 
BRANCH 102 103
ATOM    103  CG  ASP A   3      32.409  17.983  16.353  0.00  0.00    +0.367 C 
ATOM    104  OD2 ASP A   3      33.291  18.294  17.155  0.00  0.00    -0.246 OA
ATOM    105  OD1 ASP A   3      32.426  18.333  15.170  0.00  0.00    -0.246 OA
ENDBRANCH 102 103
ENDBRANCH  68 102
ENDBRANCH  64  68
ENDBRANCH  63  65
BRANCH  63 106
ATOM    106  CB  LEU A   4      28.463  19.041  21.978  0.00  0.00    +0.029 C 
BRANCH 106 107
ATOM    107  CG  LEU A   4      27.533  20.129  22.527  0.00  0.00    +0.002 C 
ATOM    108  CD2 LEU A   4      27.173  19.762  23.970  0.00  0.00    +0.000 C 
ATOM    109  CD1 LEU A   4      26.243  20.304  21.617  0.00  0.00    +0.000 C 
ENDBRANCH 106 107
ENDBRANCH  63 106
ENDBRANCH  59  63
ENDBRANCH   1  61
BRANCH   1 110
ATOM    110  CB  LYS A   5      31.893  22.904  20.036  0.00  0.00    +0.029 C 
BRANCH 110 111
ATOM    111  CG  LYS A   5      31.895  22.628  18.527  0.00  0.00    +0.000 C 
BRANCH 111 112
ATOM    112  CD  LYS A   5      33.276  22.404  18.086  0.00  0.00    -0.024 C 
BRANCH 112 113
ATOM    113  CE  LYS A   5      33.391  21.945  16.656  0.00  0.00    -0.086 C 
BRANCH 113 114
ATOM    114  NZ  LYS A   5      34.780  22.157  16.230  0.00  0.00    +0.380 N 
ATOM    115  HZ1 LYS A   5      35.416  21.605  16.840  0.00  0.00    -0.089 HD
ATOM    116  HZ2 LYS A   5      35.014  23.167  16.306  0.00  0.00    -0.089 HD
ATOM    117  HZ3 LYS A   5      34.890  21.848  15.243  0.00  0.00    -0.089 HD
ENDBRANCH 113 114
ENDBRANCH 112 113
ENDBRANCH 111 112
ENDBRANCH 110 111
ENDBRANCH   1 110
TORSDOF 48
REMARK  Name = ../refined-set-2016/3bwj/3bwj_pocket.pdb
REMARK  286 active torsions:
REMARK  status: ('A' for Active; 'I' for Inactive)
REMARK    1  A    between atoms: _1  and  _3
REMARK    2  A    between atoms: _3  and  _4
REMARK    3  A    between atoms: _3  and  _6
REMARK    4  A    between atoms: _6  and  _7
REMARK    5  A    between atoms: _10  and  _12
REMARK    6  A    between atoms: _12  and  _13
REMARK    7  A    between atoms: _12  and  _15
REMARK    8  A    between atoms: _15  and  _16
REMARK    9  A    between atoms: _19  and  _21
REMARK   10  A    between atoms: _21  and  _22
REMARK   11  A    between atoms: _24  and  _26
REMARK   12  A    between atoms: _26  and  _27
REMARK   13  A    between atoms: _26  and  _29
REMARK   14  A    between atoms: _29  and  _30
REMARK   15  A    between atoms: _33  and  _35
REMARK   16  A    between atoms: _35  and  _36
REMARK   17  A    between atoms: _38  and  _40
REMARK   18  A    between atoms: _40  and  _41
REMARK   19  A    between atoms: _40  and  _43
REMARK   20  A    between atoms: _43  and  _44
REMARK   21  A    between atoms: _46  and  _48
REMARK   22  A    between atoms: _48  and  _49
REMARK   23  A    between atoms: _48  and  _51
REMARK   24  A    between atoms: _51  and  _52
REMARK   25  A    between atoms: _58  and  _60
REMARK   26  A    between atoms: _60  and  _61
REMARK   27  A    between atoms: _63  and  _65
REMARK   28  A    between atoms: _65  and  _66
REMARK   29  A    between atoms: _65  and  _68
REMARK   30  A    between atoms: _68  and  _69
REMARK   31  A    between atoms: _69  and  _70
REMARK   32  A    between atoms: _70  and  _71
REMARK   33  A    between atoms: _80  and  _82
REMARK   34  A    between atoms: _82  and  _83
REMARK   35  A    between atoms: _82  and  _85
REMARK   36  A    between atoms: _88  and  _90
REMARK   37  A    between atoms: _90  and  _91
REMARK   38  A    between atoms: _90  and  _93
REMARK   39  A    between atoms: _93  and  _94
REMARK   40  A    between atoms: _94  and  _95
REMARK   41  A    between atoms: _97  and  _99
REMARK   42  A    between atoms: _99  and  _100
REMARK   43  A    between atoms: _99  and  _102
REMARK   44  A    between atoms: _102  and  _103
REMARK   45  A    between atoms: _106  and  _108
REMARK   46  A    between atoms: _108  and  _109
REMARK   47  A    between atoms: _108  and  _111
REMARK   48  A    between atoms: _111  and  _112
REMARK   49  A    between atoms: _117  and  _118
REMARK   50  A    between atoms: _120  and  _122
REMARK   51  A    between atoms: _122  and  _123
REMARK   52  A    between atoms: _126  and  _128
REMARK   53  A    between atoms: _128  and  _129
REMARK   54  A    between atoms: _128  and  _131
REMARK   55  A    between atoms: _131  and  _132
REMARK   56  A    between atoms: _132  and  _133
REMARK   57  A    between atoms: _135  and  _137
REMARK   58  A    between atoms: _137  and  _138
REMARK   59  A    between atoms: _137  and  _140
REMARK   60  A    between atoms: _140  and  _141
REMARK   61  A    between atoms: _141  and  _142
REMARK   62  A    between atoms: _142  and  _143
REMARK   63  A    between atoms: _143  and  _144
REMARK   64  A    between atoms: _148  and  _150
REMARK   65  A    between atoms: _150  and  _151
REMARK   66  A    between atoms: _150  and  _153
REMARK   67  A    between atoms: _153  and  _154
REMARK   68  A    between atoms: _157  and  _159
REMARK   69  A    between atoms: _159  and  _160
REMARK   70  A    between atoms: _159  and  _162
REMARK   71  A    between atoms: _162  and  _163
REMARK   72  A    between atoms: _166  and  _168
REMARK   73  A    between atoms: _168  and  _169
REMARK   74  A    between atoms: _168  and  _171
REMARK   75  A    between atoms: _171  and  _172
REMARK   76  A    between atoms: _175  and  _177
REMARK   77  A    between atoms: _177  and  _178
REMARK   78  A    between atoms: _177  and  _180
REMARK   79  A    between atoms: _180  and  _181
REMARK   80  A    between atoms: _181  and  _182
REMARK   81  A    between atoms: _182  and  _183
REMARK   82  A    between atoms: _183  and  _184
REMARK   83  A    between atoms: _188  and  _190
REMARK   84  A    between atoms: _190  and  _191
REMARK   85  A    between atoms: _190  and  _193
REMARK   86  A    between atoms: _196  and  _198
REMARK   87  A    between atoms: _198  and  _199
REMARK   88  A    between atoms: _198  and  _201
REMARK   89  A    between atoms: _201  and  _202
REMARK   90  A    between atoms: _205  and  _207
REMARK   91  A    between atoms: _207  and  _208
REMARK   92  A    between atoms: _207  and  _210
REMARK   93  A    between atoms: _210  and  _211
REMARK   94  A    between atoms: _211  and  _212
REMARK   95  A    between atoms: _217  and  _219
REMARK   96  A    between atoms: _219  and  _220
REMARK   97  A    between atoms: _219  and  _222
REMARK   98  A    between atoms: _222  and  _223
REMARK   99  A    between atoms: _226  and  _228
REMARK  100  A    between atoms: _228  and  _229
REMARK  101  A    between atoms: _228  and  _231
REMARK  102  A    between atoms: _231  and  _232
REMARK  103  A    between atoms: _232  and  _233
REMARK  104  A    between atoms: _236  and  _238
REMARK  105  A    between atoms: _238  and  _239
REMARK  106  A    between atoms: _238  and  _241
REMARK  107  A    between atoms: _244  and  _246
REMARK  108  A    between atoms: _246  and  _247
REMARK  109  A    between atoms: _246  and  _249
REMARK  110  A    between atoms: _249  and  _250
REMARK  111  A    between atoms: _250  and  _251
REMARK  112  A    between atoms: _251  and  _252
REMARK  113  A    between atoms: _252  and  _253
REMARK  114  A    between atoms: _257  and  _259
REMARK  115  A    between atoms: _259  and  _260
REMARK  116  A    between atoms: _259  and  _262
REMARK  117  A    between atoms: _262  and  _263
REMARK  118  A    between atoms: _266  and  _268
REMARK  119  A    between atoms: _268  and  _269
REMARK  120  A    between atoms: _268  and  _271
REMARK  121  A    between atoms: _271  and  _272
REMARK  122  A    between atoms: _272  and  _273
REMARK  123  A    between atoms: _276  and  _278
REMARK  124  A    between atoms: _278  and  _279
REMARK  125  A    between atoms: _278  and  _281
REMARK  126  A    between atoms: _281  and  _282
REMARK  127  A    between atoms: _282  and  _283
REMARK  128  A    between atoms: _285  and  _287
REMARK  129  A    between atoms: _287  and  _288
REMARK  130  A    between atoms: _287  and  _290
REMARK  131  A    between atoms: _293  and  _295
REMARK  132  A    between atoms: _295  and  _296
REMARK  133  A    between atoms: _295  and  _298
REMARK  134  A    between atoms: _298  and  _299
REMARK  135  A    between atoms: _299  and  _300
REMARK  136  A    between atoms: _302  and  _304
REMARK  137  A    between atoms: _304  and  _305
REMARK  138  A    between atoms: _304  and  _307
REMARK  139  A    between atoms: _307  and  _308
REMARK  140  A    between atoms: _308  and  _309
REMARK  141  A    between atoms: _312  and  _314
REMARK  142  A    between atoms: _314  and  _315
REMARK  143  A    between atoms: _314  and  _317
REMARK  144  A    between atoms: _317  and  _318
REMARK  145  A    between atoms: _323  and  _324
REMARK  146  A    between atoms: _326  and  _328
REMARK  147  A    between atoms: _328  and  _329
REMARK  148  A    between atoms: _328  and  _331
REMARK  149  A    between atoms: _335  and  _336
REMARK  150  A    between atoms: _341  and  _343
REMARK  151  A    between atoms: _343  and  _344
REMARK  152  A    between atoms: _346  and  _348
REMARK  153  A    between atoms: _348  and  _349
REMARK  154  A    between atoms: _351  and  _353
REMARK  155  A    between atoms: _353  and  _354
REMARK  156  A    between atoms: _353  and  _356
REMARK  157  A    between atoms: _356  and  _357
REMARK  158  A    between atoms: _357  and  _358
REMARK  159  A    between atoms: _361  and  _363
REMARK  160  A    between atoms: _363  and  _364
REMARK  161  A    between atoms: _363  and  _366
REMARK  162  A    between atoms: _366  and  _367
REMARK  163  A    between atoms: _367  and  _368
REMARK  164  A    between atoms: _370  and  _372
REMARK  165  A    between atoms: _372  and  _373
REMARK  166  A    between atoms: _372  and  _375
REMARK  167  A    between atoms: _375  and  _376
REMARK  168  A    between atoms: _382  and  _384
REMARK  169  A    between atoms: _384  and  _385
REMARK  170  A    between atoms: _384  and  _387
REMARK  171  A    between atoms: _387  and  _388
REMARK  172  A    between atoms: _390  and  _392
REMARK  173  A    between atoms: _392  and  _393
REMARK  174  A    between atoms: _392  and  _395
REMARK  175  A    between atoms: _395  and  _396
REMARK  176  A    between atoms: _401  and  _402
REMARK  177  A    between atoms: _404  and  _406
REMARK  178  A    between atoms: _406  and  _407
REMARK  179  A    between atoms: _406  and  _409
REMARK  180  A    between atoms: _409  and  _410
REMARK  181  A    between atoms: _410  and  _411
REMARK  182  A    between atoms: _411  and  _412
REMARK  183  A    between atoms: _421  and  _423
REMARK  184  A    between atoms: _423  and  _424
REMARK  185  A    between atoms: _423  and  _426
REMARK  186  A    between atoms: _426  and  _427
REMARK  187  A    between atoms: _430  and  _432
REMARK  188  A    between atoms: _432  and  _433
REMARK  189  A    between atoms: _432  and  _435
REMARK  190  A    between atoms: _435  and  _436
REMARK  191  A    between atoms: _439  and  _441
REMARK  192  A    between atoms: _441  and  _442
REMARK  193  A    between atoms: _441  and  _444
REMARK  194  A    between atoms: _444  and  _445
REMARK  195  A    between atoms: _445  and  _446
REMARK  196  A    between atoms: _446  and  _447
REMARK  197  A    between atoms: _447  and  _448
REMARK  198  A    between atoms: _453  and  _454
REMARK  199  A    between atoms: _459  and  _461
REMARK  200  A    between atoms: _461  and  _462
REMARK  201  A    between atoms: _461  and  _464
REMARK  202  A    between atoms: _464  and  _465
REMARK  203  A    between atoms: _465  and  _466
REMARK  204  A    between atoms: _469  and  _471
REMARK  205  A    between atoms: _471  and  _472
REMARK  206  A    between atoms: _471  and  _474
REMARK  207  A    between atoms: _474  and  _475
REMARK  208  A    between atoms: _480  and  _482
REMARK  209  A    between atoms: _482  and  _483
REMARK  210  A    between atoms: _482  and  _485
REMARK  211  A    between atoms: _485  and  _486
REMARK  212  A    between atoms: _489  and  _491
REMARK  213  A    between atoms: _491  and  _492
REMARK  214  A    between atoms: _491  and  _494
REMARK  215  A    between atoms: _494  and  _495
REMARK  216  A    between atoms: _498  and  _500
REMARK  217  A    between atoms: _500  and  _501
REMARK  218  A    between atoms: _500  and  _503
REMARK  219  A    between atoms: _503  and  _504
REMARK  220  A    between atoms: _507  and  _509
REMARK  221  A    between atoms: _509  and  _510
REMARK  222  A    between atoms: _509  and  _512
REMARK  223  A    between atoms: _512  and  _513
REMARK  224  A    between atoms: _513  and  _514
REMARK  225  A    between atoms: _519  and  _521
REMARK  226  A    between atoms: _521  and  _522
REMARK  227  A    between atoms: _521  and  _524
REMARK  228  A    between atoms: _527  and  _529
REMARK  229  A    between atoms: _529  and  _530
REMARK  230  A    between atoms: _529  and  _532
REMARK  231  A    between atoms: _532  and  _533
REMARK  232  A    between atoms: _536  and  _538
REMARK  233  A    between atoms: _538  and  _539
REMARK  234  A    between atoms: _538  and  _541
REMARK  235  A    between atoms: _541  and  _542
REMARK  236  A    between atoms: _545  and  _547
REMARK  237  A    between atoms: _547  and  _548
REMARK  238  A    between atoms: _547  and  _550
REMARK  239  A    between atoms: _550  and  _551
REMARK  240  A    between atoms: _557  and  _559
REMARK  241  A    between atoms: _559  and  _560
REMARK  242  A    between atoms: _562  and  _564
REMARK  243  A    between atoms: _564  and  _565
REMARK  244  A    between atoms: _564  and  _567
REMARK  245  A    between atoms: _567  and  _568
REMARK  246  A    between atoms: _574  and  _576
REMARK  247  A    between atoms: _576  and  _577
REMARK  248  A    between atoms: _576  and  _579
REMARK  249  A    between atoms: _581  and  _583
REMARK  250  A    between atoms: _583  and  _584
REMARK  251  A    between atoms: _586  and  _588
REMARK  252  A    between atoms: _588  and  _589
REMARK  253  A    between atoms: _588  and  _591
REMARK  254  A    between atoms: _591  and  _592
REMARK  255  A    between atoms: _596  and  _597
REMARK  256  A    between atoms: _602  and  _604
REMARK  257  A    between atoms: _604  and  _605
REMARK  258  A    between atoms: _604  and  _607
REMARK  259  A    between atoms: _607  and  _608
REMARK  260  A    between atoms: _613  and  _614
REMARK  261  A    between atoms: _616  and  _618
REMARK  262  A    between atoms: _618  and  _619
REMARK  263  A    between atoms: _618  and  _621
REMARK  264  A    between atoms: _621  and  _622
REMARK  265  A    between atoms: _625  and  _627
REMARK  266  A    between atoms: _627  and  _628
REMARK  267  A    between atoms: _627  and  _630
REMARK  268  A    between atoms: _630  and  _631
REMARK  269  A    between atoms: _636  and  _638
REMARK  270  A    between atoms: _638  and  _639
REMARK  271  A    between atoms: _638  and  _641
REMARK  272  A    between atoms: _641  and  _642
REMARK  273  A    between atoms: _648  and  _650
REMARK  274  A    between atoms: _650  and  _651
REMARK  275  A    between atoms: _650  and  _653
REMARK  276  A    between atoms: _653  and  _654
REMARK  277  A    between atoms: _657  and  _659
REMARK  278  A    between atoms: _659  and  _660
REMARK  279  A    between atoms: _659  and  _662
REMARK  280  A    between atoms: _662  and  _663
REMARK  281  A    between atoms: _668  and  _669
REMARK  282  A    between atoms: _671  and  _673
REMARK  283  A    between atoms: _673  and  _674
REMARK  284  A    between atoms: _673  and  _676
REMARK  285  A    between atoms: _676  and  _677
REMARK  286  A    between atoms: _677  and  _678
REMARK                            x       y       z     vdW  Elec       q    Type
REMARK                         _______ _______ _______ _____ _____    ______ ____
ROOT
ATOM      1  CA  ASP A   4      27.998  18.479  11.515  0.00  0.00    +0.160 C 
ENDROOT
BRANCH   1   2
ATOM      2  C   ASP A   4      27.889  17.163  12.262  0.00  0.00    +0.241 C 
ATOM      3  O   ASP A   4      28.134  17.094  13.464  0.00  0.00    -0.273 OA
ATOM      4  N   PHE A   5      27.521  16.118  11.518  0.00  0.00    -0.297 N 
ATOM      5  H   PHE A   5      27.285  16.284  10.519  0.00  0.00    +0.150 HD
BRANCH   4   6
ATOM      6  CA  PHE A   5      27.431  14.753  12.031  0.00  0.00    +0.153 C 
BRANCH   6   7
ATOM      7  C   PHE A   5      28.633  13.875  11.593  0.00  0.00    +0.241 C 
ATOM      8  O   PHE A   5      28.551  12.656  11.573  0.00  0.00    -0.273 OA
ATOM      9  N   GLY A   6      29.750  14.532  11.281  0.00  0.00    -0.295 N 
ATOM     10  H   GLY A   6      29.744  15.571  11.326  0.00  0.00    +0.150 HD
BRANCH   9  11
ATOM     11  CA  GLY A   6      30.978  13.861  10.880  0.00  0.00    +0.176 C 
BRANCH  11  12
ATOM     12  C   GLY A   6      31.697  13.074  11.981  0.00  0.00    +0.243 C 
ATOM     13  N   PHE A   7      31.267  13.169  13.239  0.00  0.00    -0.298 N 
ATOM     14  H   PHE A   7      30.565  13.890  13.500  0.00  0.00    +0.150 HD
ATOM     15  O   GLY A   6      32.668  12.394  11.690  0.00  0.00    -0.273 OA
BRANCH  13  16
ATOM     16  CA  PHE A   7      31.790  12.252  14.247  0.00  0.00    +0.141 C 
BRANCH  16  17
ATOM     17  C   PHE A   7      30.696  11.390  14.885  0.00  0.00    +0.227 C 
ATOM     18  O   PHE A   7      30.980  10.668  15.860  0.00  0.00    -0.286 OA
ENDBRANCH  16  17
BRANCH  16  19
ATOM     19  CB  PHE A   7      32.489  13.000  15.365  0.00  0.00    +0.054 C 
BRANCH  19  20
ATOM     20  CG  PHE A   7      33.841  13.550  15.015  0.00  0.00    -0.020 A 
ATOM     21  CD2 PHE A   7      34.272  14.709  15.599  0.00  0.00    -0.004 A 
ATOM     22  CE2 PHE A   7      35.539  15.225  15.325  0.00  0.00    -0.000 A 
ATOM     23  CZ  PHE A   7      36.401  14.554  14.481  0.00  0.00    -0.000 A 
ATOM     24  CE1 PHE A   7      35.995  13.411  13.875  0.00  0.00    -0.000 A 
ATOM     25  CD1 PHE A   7      34.700  12.889  14.146  0.00  0.00    -0.004 A 
ENDBRANCH  19  20
ENDBRANCH  16  19
ENDBRANCH  13  16
ENDBRANCH  11  12
ENDBRANCH   9  11
ENDBRANCH   6   7
BRANCH   6  26
ATOM     26  CB  PHE A   5      26.054  14.123  11.704  0.00  0.00    +0.055 C 
BRANCH  26  27
ATOM     27  CG  PHE A   5      24.983  14.549  12.659  0.00  0.00    -0.020 A 
ATOM     28  CD2 PHE A   5      24.335  13.623  13.468  0.00  0.00    -0.004 A 
ATOM     29  CE2 PHE A   5      23.351  14.032  14.402  0.00  0.00    -0.000 A 
ATOM     30  CZ  PHE A   5      23.026  15.364  14.535  0.00  0.00    -0.000 A 
ATOM     31  CE1 PHE A   5      23.632  16.284  13.700  0.00  0.00    -0.000 A 
ATOM     32  CD1 PHE A   5      24.625  15.874  12.765  0.00  0.00    -0.004 A 
ENDBRANCH  26  27
ENDBRANCH   6  26
ENDBRANCH   4   6
ENDBRANCH   1   2
BRANCH   1  35
ATOM     33  C   THR A   3      26.230  19.915  12.549  0.00  0.00    +0.243 C 
ATOM     34  O   THR A   3      26.705  19.867  13.662  0.00  0.00    -0.273 OA
ATOM     35  N   ASP A   4      26.779  19.298  11.500  0.00  0.00    -0.296 N 
ATOM     36  H   ASP A   4      26.297  19.408  10.585  0.00  0.00    +0.150 HD
BRANCH  33  37
ATOM     37  CA  THR A   3      24.942  20.741  12.277  0.00  0.00    +0.176 C 
BRANCH  37  39
ATOM     38  C   VAL A   2      23.149  20.635  13.944  0.00  0.00    +0.241 C 
ATOM     39  N   THR A   3      24.310  21.150  13.541  0.00  0.00    -0.295 N 
ATOM     40  H   THR A   3      24.782  21.860  14.136  0.00  0.00    +0.150 HD
ATOM     41  O   VAL A   2      22.443  19.904  13.228  0.00  0.00    -0.273 OA
BRANCH  38  42
ATOM     42  CA  VAL A   2      22.726  21.017  15.373  0.00  0.00    +0.148 C 
BRANCH  42  44
ATOM     43  C   GLN A   1      21.263  22.922  14.928  0.00  0.00    +0.238 C 
ATOM     44  N   VAL A   2      21.407  21.663  15.336  0.00  0.00    -0.297 N 
ATOM     45  H   VAL A   2      20.568  21.126  15.635  0.00  0.00    +0.150 HD
ATOM     46  O   GLN A   1      22.213  23.658  14.609  0.00  0.00    -0.274 OA
BRANCH  43  47
ATOM     47  CA  GLN A   1      19.832  23.413  14.803  0.00  0.00    +0.145 C 
BRANCH  47  48
ATOM     48  N   GLN A   1      19.652  24.620  15.628  0.00  0.00    -0.238 NA
ATOM     49  H   GLN A   1      20.237  25.453  15.413  0.00  0.00    +0.142 HD
ENDBRANCH  47  48
BRANCH  47  50
ATOM     50  CB  GLN A   1      19.625  23.666  13.319  0.00  0.00    +0.036 C 
BRANCH  50  51
ATOM     51  CG  GLN A   1      18.558  24.632  13.010  0.00  0.00    +0.087 C 
BRANCH  51  52
ATOM     52  CD  GLN A   1      17.318  23.943  12.688  0.00  0.00    +0.219 C 
ATOM     53  NE2 GLN A   1      16.593  23.496  13.723  0.00  0.00    -0.329 N 
ATOM     54 HE21 GLN A   1      16.891  23.708  14.697  0.00  0.00    +0.145 HD
ATOM     55 HE22 GLN A   1      15.732  22.937  13.552  0.00  0.00    +0.145 HD
ATOM     56  OE1 GLN A   1      17.027  23.732  11.523  0.00  0.00    -0.275 OA
ENDBRANCH  51  52
ENDBRANCH  50  51
ENDBRANCH  47  50
ENDBRANCH  43  47
ENDBRANCH  42  44
BRANCH  42  57
ATOM     57  CB  VAL A   2      22.739  19.782  16.318  0.00  0.00    +0.027 C 
ATOM     58  CG2 VAL A   2      22.220  20.144  17.723  0.00  0.00    +0.002 C 
ATOM     59  CG1 VAL A   2      24.146  19.159  16.417  0.00  0.00    +0.002 C 
ENDBRANCH  42  57
ENDBRANCH  38  42
ENDBRANCH  37  39
BRANCH  37  60
ATOM     60  CB  THR A   3      25.256  22.005  11.385  0.00  0.00    +0.137 C 
ATOM     61  CG2 THR A   3      26.438  22.859  11.977  0.00  0.00    +0.034 C 
BRANCH  60  62
ATOM     62  OG1 THR A   3      25.568  21.590  10.049  0.00  0.00    -0.382 OA
ATOM     63  HG1 THR A   3      25.764  22.386   9.495  0.00  0.00    +0.210 HD
ENDBRANCH  60  62
ENDBRANCH  37  60
ENDBRANCH  33  37
ENDBRANCH   1  35
BRANCH   1  64
ATOM     64  CB  ASP A   4      29.253  19.262  11.937  0.00  0.00    +0.143 C 
BRANCH  64  65
ATOM     65  CG  ASP A   4      30.538  18.588  11.466  0.00  0.00    +0.367 C 
ATOM     66  OD2 ASP A   4      31.612  19.243  11.464  0.00  0.00    -0.246 OA
ATOM     67  OD1 ASP A   4      30.483  17.396  11.066  0.00  0.00    -0.246 OA
ENDBRANCH  64  65
ENDBRANCH   1  64
TORSDOF 26
REMARK  Name = ../refined-set-2016/3bwj/3bwj_pocket.pdb
REMARK  286 active torsions:
REMARK  status: ('A' for Active; 'I' for Inactive)
REMARK    1  A    between atoms: _1  and  _3
REMARK    2  A    between atoms: _3  and  _4
REMARK    3  A    between atoms: _3  and  _6
REMARK    4  A    between atoms: _6  and  _7
REMARK    5  A    between atoms: _10  and  _12
REMARK    6  A    between atoms: _12  and  _13
REMARK    7  A    between atoms: _12  and  _15
REMARK    8  A    between atoms: _15  and  _16
REMARK    9  A    between atoms: _19  and  _21
REMARK   10  A    between atoms: _21  and  _22
REMARK   11  A    between atoms: _24  and  _26
REMARK   12  A    between atoms: _26  and  _27
REMARK   13  A    between atoms: _26  and  _29
REMARK   14  A    between atoms: _29  and  _30
REMARK   15  A    between atoms: _33  and  _35
REMARK   16  A    between atoms: _35  and  _36
REMARK   17  A    between atoms: _38  and  _40
REMARK   18  A    between atoms: _40  and  _41
REMARK   19  A    between atoms: _40  and  _43
REMARK   20  A    between atoms: _43  and  _44
REMARK   21  A    between atoms: _46  and  _48
REMARK   22  A    between atoms: _48  and  _49
REMARK   23  A    between atoms: _48  and  _51
REMARK   24  A    between atoms: _51  and  _52
REMARK   25  A    between atoms: _58  and  _60
REMARK   26  A    between atoms: _60  and  _61
REMARK   27  A    between atoms: _63  and  _65
REMARK   28  A    between atoms: _65  and  _66
REMARK   29  A    between atoms: _65  and  _68
REMARK   30  A    between atoms: _68  and  _69
REMARK   31  A    between atoms: _69  and  _70
REMARK   32  A    between atoms: _70  and  _71
REMARK   33  A    between atoms: _80  and  _82
REMARK   34  A    between atoms: _82  and  _83
REMARK   35  A    between atoms: _82  and  _85
REMARK   36  A    between atoms: _88  and  _90
REMARK   37  A    between atoms: _90  and  _91
REMARK   38  A    between atoms: _90  and  _93
REMARK   39  A    between atoms: _93  and  _94
REMARK   40  A    between atoms: _94  and  _95
REMARK   41  A    between atoms: _97  and  _99
REMARK   42  A    between atoms: _99  and  _100
REMARK   43  A    between atoms: _99  and  _102
REMARK   44  A    between atoms: _102  and  _103
REMARK   45  A    between atoms: _106  and  _108
REMARK   46  A    between atoms: _108  and  _109
REMARK   47  A    between atoms: _108  and  _111
REMARK   48  A    between atoms: _111  and  _112
REMARK   49  A    between atoms: _117  and  _118
REMARK   50  A    between atoms: _120  and  _122
REMARK   51  A    between atoms: _122  and  _123
REMARK   52  A    between atoms: _126  and  _128
REMARK   53  A    between atoms: _128  and  _129
REMARK   54  A    between atoms: _128  and  _131
REMARK   55  A    between atoms: _131  and  _132
REMARK   56  A    between atoms: _132  and  _133
REMARK   57  A    between atoms: _135  and  _137
REMARK   58  A    between atoms: _137  and  _138
REMARK   59  A    between atoms: _137  and  _140
REMARK   60  A    between atoms: _140  and  _141
REMARK   61  A    between atoms: _141  and  _142
REMARK   62  A    between atoms: _142  and  _143
REMARK   63  A    between atoms: _143  and  _144
REMARK   64  A    between atoms: _148  and  _150
REMARK   65  A    between atoms: _150  and  _151
REMARK   66  A    between atoms: _150  and  _153
REMARK   67  A    between atoms: _153  and  _154
REMARK   68  A    between atoms: _157  and  _159
REMARK   69  A    between atoms: _159  and  _160
REMARK   70  A    between atoms: _159  and  _162
REMARK   71  A    between atoms: _162  and  _163
REMARK   72  A    between atoms: _166  and  _168
REMARK   73  A    between atoms: _168  and  _169
REMARK   74  A    between atoms: _168  and  _171
REMARK   75  A    between atoms: _171  and  _172
REMARK   76  A    between atoms: _175  and  _177
REMARK   77  A    between atoms: _177  and  _178
REMARK   78  A    between atoms: _177  and  _180
REMARK   79  A    between atoms: _180  and  _181
REMARK   80  A    between atoms: _181  and  _182
REMARK   81  A    between atoms: _182  and  _183
REMARK   82  A    between atoms: _183  and  _184
REMARK   83  A    between atoms: _188  and  _190
REMARK   84  A    between atoms: _190  and  _191
REMARK   85  A    between atoms: _190  and  _193
REMARK   86  A    between atoms: _196  and  _198
REMARK   87  A    between atoms: _198  and  _199
REMARK   88  A    between atoms: _198  and  _201
REMARK   89  A    between atoms: _201  and  _202
REMARK   90  A    between atoms: _205  and  _207
REMARK   91  A    between atoms: _207  and  _208
REMARK   92  A    between atoms: _207  and  _210
REMARK   93  A    between atoms: _210  and  _211
REMARK   94  A    between atoms: _211  and  _212
REMARK   95  A    between atoms: _217  and  _219
REMARK   96  A    between atoms: _219  and  _220
REMARK   97  A    between atoms: _219  and  _222
REMARK   98  A    between atoms: _222  and  _223
REMARK   99  A    between atoms: _226  and  _228
REMARK  100  A    between atoms: _228  and  _229
REMARK  101  A    between atoms: _228  and  _231
REMARK  102  A    between atoms: _231  and  _232
REMARK  103  A    between atoms: _232  and  _233
REMARK  104  A    between atoms: _236  and  _238
REMARK  105  A    between atoms: _238  and  _239
REMARK  106  A    between atoms: _238  and  _241
REMARK  107  A    between atoms: _244  and  _246
REMARK  108  A    between atoms: _246  and  _247
REMARK  109  A    between atoms: _246  and  _249
REMARK  110  A    between atoms: _249  and  _250
REMARK  111  A    between atoms: _250  and  _251
REMARK  112  A    between atoms: _251  and  _252
REMARK  113  A    between atoms: _252  and  _253
REMARK  114  A    between atoms: _257  and  _259
REMARK  115  A    between atoms: _259  and  _260
REMARK  116  A    between atoms: _259  and  _262
REMARK  117  A    between atoms: _262  and  _263
REMARK  118  A    between atoms: _266  and  _268
REMARK  119  A    between atoms: _268  and  _269
REMARK  120  A    between atoms: _268  and  _271
REMARK  121  A    between atoms: _271  and  _272
REMARK  122  A    between atoms: _272  and  _273
REMARK  123  A    between atoms: _276  and  _278
REMARK  124  A    between atoms: _278  and  _279
REMARK  125  A    between atoms: _278  and  _281
REMARK  126  A    between atoms: _281  and  _282
REMARK  127  A    between atoms: _282  and  _283
REMARK  128  A    between atoms: _285  and  _287
REMARK  129  A    between atoms: _287  and  _288
REMARK  130  A    between atoms: _287  and  _290
REMARK  131  A    between atoms: _293  and  _295
REMARK  132  A    between atoms: _295  and  _296
REMARK  133  A    between atoms: _295  and  _298
REMARK  134  A    between atoms: _298  and  _299
REMARK  135  A    between atoms: _299  and  _300
REMARK  136  A    between atoms: _302  and  _304
REMARK  137  A    between atoms: _304  and  _305
REMARK  138  A    between atoms: _304  and  _307
REMARK  139  A    between atoms: _307  and  _308
REMARK  140  A    between atoms: _308  and  _309
REMARK  141  A    between atoms: _312  and  _314
REMARK  142  A    between atoms: _314  and  _315
REMARK  143  A    between atoms: _314  and  _317
REMARK  144  A    between atoms: _317  and  _318
REMARK  145  A    between atoms: _323  and  _324
REMARK  146  A    between atoms: _326  and  _328
REMARK  147  A    between atoms: _328  and  _329
REMARK  148  A    between atoms: _328  and  _331
REMARK  149  A    between atoms: _335  and  _336
REMARK  150  A    between atoms: _341  and  _343
REMARK  151  A    between atoms: _343  and  _344
REMARK  152  A    between atoms: _346  and  _348
REMARK  153  A    between atoms: _348  and  _349
REMARK  154  A    between atoms: _351  and  _353
REMARK  155  A    between atoms: _353  and  _354
REMARK  156  A    between atoms: _353  and  _356
REMARK  157  A    between atoms: _356  and  _357
REMARK  158  A    between atoms: _357  and  _358
REMARK  159  A    between atoms: _361  and  _363
REMARK  160  A    between atoms: _363  and  _364
REMARK  161  A    between atoms: _363  and  _366
REMARK  162  A    between atoms: _366  and  _367
REMARK  163  A    between atoms: _367  and  _368
REMARK  164  A    between atoms: _370  and  _372
REMARK  165  A    between atoms: _372  and  _373
REMARK  166  A    between atoms: _372  and  _375
REMARK  167  A    between atoms: _375  and  _376
REMARK  168  A    between atoms: _382  and  _384
REMARK  169  A    between atoms: _384  and  _385
REMARK  170  A    between atoms: _384  and  _387
REMARK  171  A    between atoms: _387  and  _388
REMARK  172  A    between atoms: _390  and  _392
REMARK  173  A    between atoms: _392  and  _393
REMARK  174  A    between atoms: _392  and  _395
REMARK  175  A    between atoms: _395  and  _396
REMARK  176  A    between atoms: _401  and  _402
REMARK  177  A    between atoms: _404  and  _406
REMARK  178  A    between atoms: _406  and  _407
REMARK  179  A    between atoms: _406  and  _409
REMARK  180  A    between atoms: _409  and  _410
REMARK  181  A    between atoms: _410  and  _411
REMARK  182  A    between atoms: _411  and  _412
REMARK  183  A    between atoms: _421  and  _423
REMARK  184  A    between atoms: _423  and  _424
REMARK  185  A    between atoms: _423  and  _426
REMARK  186  A    between atoms: _426  and  _427
REMARK  187  A    between atoms: _430  and  _432
REMARK  188  A    between atoms: _432  and  _433
REMARK  189  A    between atoms: _432  and  _435
REMARK  190  A    between atoms: _435  and  _436
REMARK  191  A    between atoms: _439  and  _441
REMARK  192  A    between atoms: _441  and  _442
REMARK  193  A    between atoms: _441  and  _444
REMARK  194  A    between atoms: _444  and  _445
REMARK  195  A    between atoms: _445  and  _446
REMARK  196  A    between atoms: _446  and  _447
REMARK  197  A    between atoms: _447  and  _448
REMARK  198  A    between atoms: _453  and  _454
REMARK  199  A    between atoms: _459  and  _461
REMARK  200  A    between atoms: _461  and  _462
REMARK  201  A    between atoms: _461  and  _464
REMARK  202  A    between atoms: _464  and  _465
REMARK  203  A    between atoms: _465  and  _466
REMARK  204  A    between atoms: _469  and  _471
REMARK  205  A    between atoms: _471  and  _472
REMARK  206  A    between atoms: _471  and  _474
REMARK  207  A    between atoms: _474  and  _475
REMARK  208  A    between atoms: _480  and  _482
REMARK  209  A    between atoms: _482  and  _483
REMARK  210  A    between atoms: _482  and  _485
REMARK  211  A    between atoms: _485  and  _486
REMARK  212  A    between atoms: _489  and  _491
REMARK  213  A    between atoms: _491  and  _492
REMARK  214  A    between atoms: _491  and  _494
REMARK  215  A    between atoms: _494  and  _495
REMARK  216  A    between atoms: _498  and  _500
REMARK  217  A    between atoms: _500  and  _501
REMARK  218  A    between atoms: _500  and  _503
REMARK  219  A    between atoms: _503  and  _504
REMARK  220  A    between atoms: _507  and  _509
REMARK  221  A    between atoms: _509  and  _510
REMARK  222  A    between atoms: _509  and  _512
REMARK  223  A    between atoms: _512  and  _513
REMARK  224  A    between atoms: _513  and  _514
REMARK  225  A    between atoms: _519  and  _521
REMARK  226  A    between atoms: _521  and  _522
REMARK  227  A    between atoms: _521  and  _524
REMARK  228  A    between atoms: _527  and  _529
REMARK  229  A    between atoms: _529  and  _530
REMARK  230  A    between atoms: _529  and  _532
REMARK  231  A    between atoms: _532  and  _533
REMARK  232  A    between atoms: _536  and  _538
REMARK  233  A    between atoms: _538  and  _539
REMARK  234  A    between atoms: _538  and  _541
REMARK  235  A    between atoms: _541  and  _542
REMARK  236  A    between atoms: _545  and  _547
REMARK  237  A    between atoms: _547  and  _548
REMARK  238  A    between atoms: _547  and  _550
REMARK  239  A    between atoms: _550  and  _551
REMARK  240  A    between atoms: _557  and  _559
REMARK  241  A    between atoms: _559  and  _560
REMARK  242  A    between atoms: _562  and  _564
REMARK  243  A    between atoms: _564  and  _565
REMARK  244  A    between atoms: _564  and  _567
REMARK  245  A    between atoms: _567  and  _568
REMARK  246  A    between atoms: _574  and  _576
REMARK  247  A    between atoms: _576  and  _577
REMARK  248  A    between atoms: _576  and  _579
REMARK  249  A    between atoms: _581  and  _583
REMARK  250  A    between atoms: _583  and  _584
REMARK  251  A    between atoms: _586  and  _588
REMARK  252  A    between atoms: _588  and  _589
REMARK  253  A    between atoms: _588  and  _591
REMARK  254  A    between atoms: _591  and  _592
REMARK  255  A    between atoms: _596  and  _597
REMARK  256  A    between atoms: _602  and  _604
REMARK  257  A    between atoms: _604  and  _605
REMARK  258  A    between atoms: _604  and  _607
REMARK  259  A    between atoms: _607  and  _608
REMARK  260  A    between atoms: _613  and  _614
REMARK  261  A    between atoms: _616  and  _618
REMARK  262  A    between atoms: _618  and  _619
REMARK  263  A    between atoms: _618  and  _621
REMARK  264  A    between atoms: _621  and  _622
REMARK  265  A    between atoms: _625  and  _627
REMARK  266  A    between atoms: _627  and  _628
REMARK  267  A    between atoms: _627  and  _630
REMARK  268  A    between atoms: _630  and  _631
REMARK  269  A    between atoms: _636  and  _638
REMARK  270  A    between atoms: _638  and  _639
REMARK  271  A    between atoms: _638  and  _641
REMARK  272  A    between atoms: _641  and  _642
REMARK  273  A    between atoms: _648  and  _650
REMARK  274  A    between atoms: _650  and  _651
REMARK  275  A    between atoms: _650  and  _653
REMARK  276  A    between atoms: _653  and  _654
REMARK  277  A    between atoms: _657  and  _659
REMARK  278  A    between atoms: _659  and  _660
REMARK  279  A    between atoms: _659  and  _662
REMARK  280  A    between atoms: _662  and  _663
REMARK  281  A    between atoms: _668  and  _669
REMARK  282  A    between atoms: _671  and  _673
REMARK  283  A    between atoms: _673  and  _674
REMARK  284  A    between atoms: _673  and  _676
REMARK  285  A    between atoms: _676  and  _677
REMARK  286  A    between atoms: _677  and  _678
REMARK                            x       y       z     vdW  Elec       q    Type
REMARK                         _______ _______ _______ _____ _____    ______ ____
ROOT
ATOM      1  C   GLY A   2      36.942  16.735  19.026  0.00  0.00    +0.243 C 
ATOM      2  N   THR A   3      36.566  17.708  19.844  0.00  0.00    -0.295 N 
ATOM      3  H   THR A   3      35.719  17.579  20.434  0.00  0.00    +0.150 HD
ATOM      4  O   GLY A   2      37.886  16.838  18.280  0.00  0.00    -0.273 OA
ENDROOT
BRANCH   1   5
ATOM      5  CA  GLY A   2      36.167  15.458  19.071  0.00  0.00    +0.176 C 
BRANCH   5   8
ATOM      6  C   CYS A   1      37.094  13.201  18.839  0.00  0.00    +0.239 C 
ATOM      7  O   CYS A   1      36.563  12.785  19.885  0.00  0.00    -0.274 OA
ATOM      8  N   GLY A   2      37.012  14.462  18.428  0.00  0.00    -0.296 N 
ATOM      9  H   GLY A   2      37.580  14.752  17.606  0.00  0.00    +0.150 HD
BRANCH   6  10
ATOM     10  CA  CYS A   1      37.922  12.267  17.958  0.00  0.00    +0.156 C 
BRANCH  10  11
ATOM     11  N   CYS A   1      38.391  11.160  18.765  0.00  0.00    -0.237 NA
ATOM     12  H   CYS A   1      37.861  10.866  19.610  0.00  0.00    +0.142 HD
ENDBRANCH  10  11
BRANCH  10  13
ATOM     13  CB  CYS A   1      37.135  11.749  16.744  0.00  0.00    +0.095 C 
ATOM     14  SG  CYS A   1      35.598  10.820  17.151  0.00  0.00    -0.080 S 
ENDBRANCH  10  13
ENDBRANCH   6  10
ENDBRANCH   5   8
ENDBRANCH   1   5
BRANCH   2  15
ATOM     15  CA  THR A   3      37.324  18.971  19.935  0.00  0.00    +0.176 C 
BRANCH  15  16
ATOM     16  C   THR A   3      38.000  19.026  21.300  0.00  0.00    +0.246 C 
ATOM     17  O   THR A   3      37.341  18.839  22.304  0.00  0.00    -0.273 OA
ATOM     18  N   PRO A   4      39.310  19.324  21.352  0.00  0.00    -0.273 N 
ATOM     19  CA  PRO A   4      40.043  19.216  22.618  0.00  0.00    +0.140 C 
ATOM     20  CB  PRO A   4      41.333  20.008  22.327  0.00  0.00    +0.030 C 
ATOM     21  CG  PRO A   4      41.598  19.698  20.877  0.00  0.00    +0.024 C 
ATOM     22  CD  PRO A   4      40.197  19.778  20.257  0.00  0.00    +0.094 C 
BRANCH  19  23
ATOM     23  C   PRO A   4      39.311  19.746  23.855  0.00  0.00    +0.227 C 
ATOM     24  O   PRO A   4      39.256  19.038  24.847  0.00  0.00    -0.286 OA
ENDBRANCH  19  23
ENDBRANCH  15  16
BRANCH  15  25
ATOM     25  CB  THR A   3      36.348  20.192  19.706  0.00  0.00    +0.137 C 
ATOM     26  CG2 THR A   3      37.022  21.536  19.989  0.00  0.00    +0.034 C 
BRANCH  25  27
ATOM     27  OG1 THR A   3      35.890  20.130  18.348  0.00  0.00    -0.382 OA
ATOM     28  HG1 THR A   3      35.415  19.274  18.200  0.00  0.00    +0.210 HD
ENDBRANCH  25  27
ENDBRANCH  15  25
ENDBRANCH   2  15
TORSDOF 10
REMARK  Name = ../refined-set-2016/3bwj/3bwj_pocket.pdb
REMARK  286 active torsions:
REMARK  status: ('A' for Active; 'I' for Inactive)
REMARK    1  A    between atoms: _1  and  _3
REMARK    2  A    between atoms: _3  and  _4
REMARK    3  A    between atoms: _3  and  _6
REMARK    4  A    between atoms: _6  and  _7
REMARK    5  A    between atoms: _10  and  _12
REMARK    6  A    between atoms: _12  and  _13
REMARK    7  A    between atoms: _12  and  _15
REMARK    8  A    between atoms: _15  and  _16
REMARK    9  A    between atoms: _19  and  _21
REMARK   10  A    between atoms: _21  and  _22
REMARK   11  A    between atoms: _24  and  _26
REMARK   12  A    between atoms: _26  and  _27
REMARK   13  A    between atoms: _26  and  _29
REMARK   14  A    between atoms: _29  and  _30
REMARK   15  A    between atoms: _33  and  _35
REMARK   16  A    between atoms: _35  and  _36
REMARK   17  A    between atoms: _38  and  _40
REMARK   18  A    between atoms: _40  and  _41
REMARK   19  A    between atoms: _40  and  _43
REMARK   20  A    between atoms: _43  and  _44
REMARK   21  A    between atoms: _46  and  _48
REMARK   22  A    between atoms: _48  and  _49
REMARK   23  A    between atoms: _48  and  _51
REMARK   24  A    between atoms: _51  and  _52
REMARK   25  A    between atoms: _58  and  _60
REMARK   26  A    between atoms: _60  and  _61
REMARK   27  A    between atoms: _63  and  _65
REMARK   28  A    between atoms: _65  and  _66
REMARK   29  A    between atoms: _65  and  _68
REMARK   30  A    between atoms: _68  and  _69
REMARK   31  A    between atoms: _69  and  _70
REMARK   32  A    between atoms: _70  and  _71
REMARK   33  A    between atoms: _80  and  _82
REMARK   34  A    between atoms: _82  and  _83
REMARK   35  A    between atoms: _82  and  _85
REMARK   36  A    between atoms: _88  and  _90
REMARK   37  A    between atoms: _90  and  _91
REMARK   38  A    between atoms: _90  and  _93
REMARK   39  A    between atoms: _93  and  _94
REMARK   40  A    between atoms: _94  and  _95
REMARK   41  A    between atoms: _97  and  _99
REMARK   42  A    between atoms: _99  and  _100
REMARK   43  A    between atoms: _99  and  _102
REMARK   44  A    between atoms: _102  and  _103
REMARK   45  A    between atoms: _106  and  _108
REMARK   46  A    between atoms: _108  and  _109
REMARK   47  A    between atoms: _108  and  _111
REMARK   48  A    between atoms: _111  and  _112
REMARK   49  A    between atoms: _117  and  _118
REMARK   50  A    between atoms: _120  and  _122
REMARK   51  A    between atoms: _122  and  _123
REMARK   52  A    between atoms: _126  and  _128
REMARK   53  A    between atoms: _128  and  _129
REMARK   54  A    between atoms: _128  and  _131
REMARK   55  A    between atoms: _131  and  _132
REMARK   56  A    between atoms: _132  and  _133
REMARK   57  A    between atoms: _135  and  _137
REMARK   58  A    between atoms: _137  and  _138
REMARK   59  A    between atoms: _137  and  _140
REMARK   60  A    between atoms: _140  and  _141
REMARK   61  A    between atoms: _141  and  _142
REMARK   62  A    between atoms: _142  and  _143
REMARK   63  A    between atoms: _143  and  _144
REMARK   64  A    between atoms: _148  and  _150
REMARK   65  A    between atoms: _150  and  _151
REMARK   66  A    between atoms: _150  and  _153
REMARK   67  A    between atoms: _153  and  _154
REMARK   68  A    between atoms: _157  and  _159
REMARK   69  A    between atoms: _159  and  _160
REMARK   70  A    between atoms: _159  and  _162
REMARK   71  A    between atoms: _162  and  _163
REMARK   72  A    between atoms: _166  and  _168
REMARK   73  A    between atoms: _168  and  _169
REMARK   74  A    between atoms: _168  and  _171
REMARK   75  A    between atoms: _171  and  _172
REMARK   76  A    between atoms: _175  and  _177
REMARK   77  A    between atoms: _177  and  _178
REMARK   78  A    between atoms: _177  and  _180
REMARK   79  A    between atoms: _180  and  _181
REMARK   80  A    between atoms: _181  and  _182
REMARK   81  A    between atoms: _182  and  _183
REMARK   82  A    between atoms: _183  and  _184
REMARK   83  A    between atoms: _188  and  _190
REMARK   84  A    between atoms: _190  and  _191
REMARK   85  A    between atoms: _190  and  _193
REMARK   86  A    between atoms: _196  and  _198
REMARK   87  A    between atoms: _198  and  _199
REMARK   88  A    between atoms: _198  and  _201
REMARK   89  A    between atoms: _201  and  _202
REMARK   90  A    between atoms: _205  and  _207
REMARK   91  A    between atoms: _207  and  _208
REMARK   92  A    between atoms: _207  and  _210
REMARK   93  A    between atoms: _210  and  _211
REMARK   94  A    between atoms: _211  and  _212
REMARK   95  A    between atoms: _217  and  _219
REMARK   96  A    between atoms: _219  and  _220
REMARK   97  A    between atoms: _219  and  _222
REMARK   98  A    between atoms: _222  and  _223
REMARK   99  A    between atoms: _226  and  _228
REMARK  100  A    between atoms: _228  and  _229
REMARK  101  A    between atoms: _228  and  _231
REMARK  102  A    between atoms: _231  and  _232
REMARK  103  A    between atoms: _232  and  _233
REMARK  104  A    between atoms: _236  and  _238
REMARK  105  A    between atoms: _238  and  _239
REMARK  106  A    between atoms: _238  and  _241
REMARK  107  A    between atoms: _244  and  _246
REMARK  108  A    between atoms: _246  and  _247
REMARK  109  A    between atoms: _246  and  _249
REMARK  110  A    between atoms: _249  and  _250
REMARK  111  A    between atoms: _250  and  _251
REMARK  112  A    between atoms: _251  and  _252
REMARK  113  A    between atoms: _252  and  _253
REMARK  114  A    between atoms: _257  and  _259
REMARK  115  A    between atoms: _259  and  _260
REMARK  116  A    between atoms: _259  and  _262
REMARK  117  A    between atoms: _262  and  _263
REMARK  118  A    between atoms: _266  and  _268
REMARK  119  A    between atoms: _268  and  _269
REMARK  120  A    between atoms: _268  and  _271
REMARK  121  A    between atoms: _271  and  _272
REMARK  122  A    between atoms: _272  and  _273
REMARK  123  A    between atoms: _276  and  _278
REMARK  124  A    between atoms: _278  and  _279
REMARK  125  A    between atoms: _278  and  _281
REMARK  126  A    between atoms: _281  and  _282
REMARK  127  A    between atoms: _282  and  _283
REMARK  128  A    between atoms: _285  and  _287
REMARK  129  A    between atoms: _287  and  _288
REMARK  130  A    between atoms: _287  and  _290
REMARK  131  A    between atoms: _293  and  _295
REMARK  132  A    between atoms: _295  and  _296
REMARK  133  A    between atoms: _295  and  _298
REMARK  134  A    between atoms: _298  and  _299
REMARK  135  A    between atoms: _299  and  _300
REMARK  136  A    between atoms: _302  and  _304
REMARK  137  A    between atoms: _304  and  _305
REMARK  138  A    between atoms: _304  and  _307
REMARK  139  A    between atoms: _307  and  _308
REMARK  140  A    between atoms: _308  and  _309
REMARK  141  A    between atoms: _312  and  _314
REMARK  142  A    between atoms: _314  and  _315
REMARK  143  A    between atoms: _314  and  _317
REMARK  144  A    between atoms: _317  and  _318
REMARK  145  A    between atoms: _323  and  _324
REMARK  146  A    between atoms: _326  and  _328
REMARK  147  A    between atoms: _328  and  _329
REMARK  148  A    between atoms: _328  and  _331
REMARK  149  A    between atoms: _335  and  _336
REMARK  150  A    between atoms: _341  and  _343
REMARK  151  A    between atoms: _343  and  _344
REMARK  152  A    between atoms: _346  and  _348
REMARK  153  A    between atoms: _348  and  _349
REMARK  154  A    between atoms: _351  and  _353
REMARK  155  A    between atoms: _353  and  _354
REMARK  156  A    between atoms: _353  and  _356
REMARK  157  A    between atoms: _356  and  _357
REMARK  158  A    between atoms: _357  and  _358
REMARK  159  A    between atoms: _361  and  _363
REMARK  160  A    between atoms: _363  and  _364
REMARK  161  A    between atoms: _363  and  _366
REMARK  162  A    between atoms: _366  and  _367
REMARK  163  A    between atoms: _367  and  _368
REMARK  164  A    between atoms: _370  and  _372
REMARK  165  A    between atoms: _372  and  _373
REMARK  166  A    between atoms: _372  and  _375
REMARK  167  A    between atoms: _375  and  _376
REMARK  168  A    between atoms: _382  and  _384
REMARK  169  A    between atoms: _384  and  _385
REMARK  170  A    between atoms: _384  and  _387
REMARK  171  A    between atoms: _387  and  _388
REMARK  172  A    between atoms: _390  and  _392
REMARK  173  A    between atoms: _392  and  _393
REMARK  174  A    between atoms: _392  and  _395
REMARK  175  A    between atoms: _395  and  _396
REMARK  176  A    between atoms: _401  and  _402
REMARK  177  A    between atoms: _404  and  _406
REMARK  178  A    between atoms: _406  and  _407
REMARK  179  A    between atoms: _406  and  _409
REMARK  180  A    between atoms: _409  and  _410
REMARK  181  A    between atoms: _410  and  _411
REMARK  182  A    between atoms: _411  and  _412
REMARK  183  A    between atoms: _421  and  _423
REMARK  184  A    between atoms: _423  and  _424
REMARK  185  A    between atoms: _423  and  _426
REMARK  186  A    between atoms: _426  and  _427
REMARK  187  A    between atoms: _430  and  _432
REMARK  188  A    between atoms: _432  and  _433
REMARK  189  A    between atoms: _432  and  _435
REMARK  190  A    between atoms: _435  and  _436
REMARK  191  A    between atoms: _439  and  _441
REMARK  192  A    between atoms: _441  and  _442
REMARK  193  A    between atoms: _441  and  _444
REMARK  194  A    between atoms: _444  and  _445
REMARK  195  A    between atoms: _445  and  _446
REMARK  196  A    between atoms: _446  and  _447
REMARK  197  A    between atoms: _447  and  _448
REMARK  198  A    between atoms: _453  and  _454
REMARK  199  A    between atoms: _459  and  _461
REMARK  200  A    between atoms: _461  and  _462
REMARK  201  A    between atoms: _461  and  _464
REMARK  202  A    between atoms: _464  and  _465
REMARK  203  A    between atoms: _465  and  _466
REMARK  204  A    between atoms: _469  and  _471
REMARK  205  A    between atoms: _471  and  _472
REMARK  206  A    between atoms: _471  and  _474
REMARK  207  A    between atoms: _474  and  _475
REMARK  208  A    between atoms: _480  and  _482
REMARK  209  A    between atoms: _482  and  _483
REMARK  210  A    between atoms: _482  and  _485
REMARK  211  A    between atoms: _485  and  _486
REMARK  212  A    between atoms: _489  and  _491
REMARK  213  A    between atoms: _491  and  _492
REMARK  214  A    between atoms: _491  and  _494
REMARK  215  A    between atoms: _494  and  _495
REMARK  216  A    between atoms: _498  and  _500
REMARK  217  A    between atoms: _500  and  _501
REMARK  218  A    between atoms: _500  and  _503
REMARK  219  A    between atoms: _503  and  _504
REMARK  220  A    between atoms: _507  and  _509
REMARK  221  A    between atoms: _509  and  _510
REMARK  222  A    between atoms: _509  and  _512
REMARK  223  A    between atoms: _512  and  _513
REMARK  224  A    between atoms: _513  and  _514
REMARK  225  A    between atoms: _519  and  _521
REMARK  226  A    between atoms: _521  and  _522
REMARK  227  A    between atoms: _521  and  _524
REMARK  228  A    between atoms: _527  and  _529
REMARK  229  A    between atoms: _529  and  _530
REMARK  230  A    between atoms: _529  and  _532
REMARK  231  A    between atoms: _532  and  _533
REMARK  232  A    between atoms: _536  and  _538
REMARK  233  A    between atoms: _538  and  _539
REMARK  234  A    between atoms: _538  and  _541
REMARK  235  A    between atoms: _541  and  _542
REMARK  236  A    between atoms: _545  and  _547
REMARK  237  A    between atoms: _547  and  _548
REMARK  238  A    between atoms: _547  and  _550
REMARK  239  A    between atoms: _550  and  _551
REMARK  240  A    between atoms: _557  and  _559
REMARK  241  A    between atoms: _559  and  _560
REMARK  242  A    between atoms: _562  and  _564
REMARK  243  A    between atoms: _564  and  _565
REMARK  244  A    between atoms: _564  and  _567
REMARK  245  A    between atoms: _567  and  _568
REMARK  246  A    between atoms: _574  and  _576
REMARK  247  A    between atoms: _576  and  _577
REMARK  248  A    between atoms: _576  and  _579
REMARK  249  A    between atoms: _581  and  _583
REMARK  250  A    between atoms: _583  and  _584
REMARK  251  A    between atoms: _586  and  _588
REMARK  252  A    between atoms: _588  and  _589
REMARK  253  A    between atoms: _588  and  _591
REMARK  254  A    between atoms: _591  and  _592
REMARK  255  A    between atoms: _596  and  _597
REMARK  256  A    between atoms: _602  and  _604
REMARK  257  A    between atoms: _604  and  _605
REMARK  258  A    between atoms: _604  and  _607
REMARK  259  A    between atoms: _607  and  _608
REMARK  260  A    between atoms: _613  and  _614
REMARK  261  A    between atoms: _616  and  _618
REMARK  262  A    between atoms: _618  and  _619
REMARK  263  A    between atoms: _618  and  _621
REMARK  264  A    between atoms: _621  and  _622
REMARK  265  A    between atoms: _625  and  _627
REMARK  266  A    between atoms: _627  and  _628
REMARK  267  A    between atoms: _627  and  _630
REMARK  268  A    between atoms: _630  and  _631
REMARK  269  A    between atoms: _636  and  _638
REMARK  270  A    between atoms: _638  and  _639
REMARK  271  A    between atoms: _638  and  _641
REMARK  272  A    between atoms: _641  and  _642
REMARK  273  A    between atoms: _648  and  _650
REMARK  274  A    between atoms: _650  and  _651
REMARK  275  A    between atoms: _650  and  _653
REMARK  276  A    between atoms: _653  and  _654
REMARK  277  A    between atoms: _657  and  _659
REMARK  278  A    between atoms: _659  and  _660
REMARK  279  A    between atoms: _659  and  _662
REMARK  280  A    between atoms: _662  and  _663
REMARK  281  A    between atoms: _668  and  _669
REMARK  282  A    between atoms: _671  and  _673
REMARK  283  A    between atoms: _673  and  _674
REMARK  284  A    between atoms: _673  and  _676
REMARK  285  A    between atoms: _676  and  _677
REMARK  286  A    between atoms: _677  and  _678
REMARK                            x       y       z     vdW  Elec       q    Type
REMARK                         _______ _______ _______ _____ _____    ______ ____
ROOT
ATOM      1  CA  TYR A   1      35.011  19.321  24.784  0.00  0.00    +0.149 C 
ENDROOT
BRANCH   1   2
ATOM      2  C   TYR A   1      35.128  17.831  25.092  0.00  0.00    +0.239 C 
ATOM      3  O   TYR A   1      34.134  17.230  25.545  0.00  0.00    -0.274 OA
ATOM      4  N   LEU A   2      36.340  17.282  24.899  0.00  0.00    -0.298 N 
ATOM      5  H   LEU A   2      37.096  17.888  24.521  0.00  0.00    +0.150 HD
BRANCH   4   6
ATOM      6  CA  LEU A   2      36.665  15.861  25.193  0.00  0.00    +0.137 C 
BRANCH   6   7
ATOM      7  C   LEU A   2      36.517  15.431  26.652  0.00  0.00    +0.227 C 
ATOM      8  O   LEU A   2      37.139  16.006  27.549  0.00  0.00    -0.286 OA
ENDBRANCH   6   7
BRANCH   6   9
ATOM      9  CB  LEU A   2      38.092  15.510  24.723  0.00  0.00    +0.028 C 
BRANCH   9  10
ATOM     10  CG  LEU A   2      38.419  15.679  23.241  0.00  0.00    +0.002 C 
ATOM     11  CD2 LEU A   2      39.893  15.222  22.858  0.00  0.00    +0.000 C 
ATOM     12  CD1 LEU A   2      37.350  14.976  22.381  0.00  0.00    +0.000 C 
ENDBRANCH   9  10
ENDBRANCH   6   9
ENDBRANCH   4   6
ENDBRANCH   1   2
BRANCH   1  13
ATOM     13  N   TYR A   1      36.283  19.998  24.559  0.00  0.00    -0.238 NA
ATOM     14  H   TYR A   1      36.774  19.839  23.656  0.00  0.00    +0.142 HD
ENDBRANCH   1  13
BRANCH   1  15
ATOM     15  CB  TYR A   1      34.015  19.596  23.626  0.00  0.00    +0.053 C 
BRANCH  15  16
ATOM     16  CG  TYR A   1      33.384  20.948  23.794  0.00  0.00    -0.020 A 
ATOM     17  CD2 TYR A   1      32.162  21.082  24.464  0.00  0.00    -0.001 A 
ATOM     18  CE2 TYR A   1      31.546  22.344  24.659  0.00  0.00    +0.036 A 
ATOM     19  CZ  TYR A   1      32.194  23.472  24.227  0.00  0.00    +0.134 A 
ATOM     20  CE1 TYR A   1      33.417  23.364  23.550  0.00  0.00    +0.036 A 
ATOM     21  CD1 TYR A   1      34.007  22.085  23.339  0.00  0.00    -0.001 A 
BRANCH  19  22
ATOM     22  OH  TYR A   1      31.590  24.709  24.437  0.00  0.00    -0.506 OA
ATOM     23  HH  TYR A   1      32.171  25.424  24.075  0.00  0.00    +0.292 HD
ENDBRANCH  19  22
ENDBRANCH  15  16
ENDBRANCH   1  15
TORSDOF 9
REMARK  Name = ../refined-set-2016/3bwj/3bwj_pocket.pdb
REMARK  286 active torsions:
REMARK  status: ('A' for Active; 'I' for Inactive)
REMARK    1  A    between atoms: _1  and  _3
REMARK    2  A    between atoms: _3  and  _4
REMARK    3  A    between atoms: _3  and  _6
REMARK    4  A    between atoms: _6  and  _7
REMARK    5  A    between atoms: _10  and  _12
REMARK    6  A    between atoms: _12  and  _13
REMARK    7  A    between atoms: _12  and  _15
REMARK    8  A    between atoms: _15  and  _16
REMARK    9  A    between atoms: _19  and  _21
REMARK   10  A    between atoms: _21  and  _22
REMARK   11  A    between atoms: _24  and  _26
REMARK   12  A    between atoms: _26  and  _27
REMARK   13  A    between atoms: _26  and  _29
REMARK   14  A    between atoms: _29  and  _30
REMARK   15  A    between atoms: _33  and  _35
REMARK   16  A    between atoms: _35  and  _36
REMARK   17  A    between atoms: _38  and  _40
REMARK   18  A    between atoms: _40  and  _41
REMARK   19  A    between atoms: _40  and  _43
REMARK   20  A    between atoms: _43  and  _44
REMARK   21  A    between atoms: _46  and  _48
REMARK   22  A    between atoms: _48  and  _49
REMARK   23  A    between atoms: _48  and  _51
REMARK   24  A    between atoms: _51  and  _52
REMARK   25  A    between atoms: _58  and  _60
REMARK   26  A    between atoms: _60  and  _61
REMARK   27  A    between atoms: _63  and  _65
REMARK   28  A    between atoms: _65  and  _66
REMARK   29  A    between atoms: _65  and  _68
REMARK   30  A    between atoms: _68  and  _69
REMARK   31  A    between atoms: _69  and  _70
REMARK   32  A    between atoms: _70  and  _71
REMARK   33  A    between atoms: _80  and  _82
REMARK   34  A    between atoms: _82  and  _83
REMARK   35  A    between atoms: _82  and  _85
REMARK   36  A    between atoms: _88  and  _90
REMARK   37  A    between atoms: _90  and  _91
REMARK   38  A    between atoms: _90  and  _93
REMARK   39  A    between atoms: _93  and  _94
REMARK   40  A    between atoms: _94  and  _95
REMARK   41  A    between atoms: _97  and  _99
REMARK   42  A    between atoms: _99  and  _100
REMARK   43  A    between atoms: _99  and  _102
REMARK   44  A    between atoms: _102  and  _103
REMARK   45  A    between atoms: _106  and  _108
REMARK   46  A    between atoms: _108  and  _109
REMARK   47  A    between atoms: _108  and  _111
REMARK   48  A    between atoms: _111  and  _112
REMARK   49  A    between atoms: _117  and  _118
REMARK   50  A    between atoms: _120  and  _122
REMARK   51  A    between atoms: _122  and  _123
REMARK   52  A    between atoms: _126  and  _128
REMARK   53  A    between atoms: _128  and  _129
REMARK   54  A    between atoms: _128  and  _131
REMARK   55  A    between atoms: _131  and  _132
REMARK   56  A    between atoms: _132  and  _133
REMARK   57  A    between atoms: _135  and  _137
REMARK   58  A    between atoms: _137  and  _138
REMARK   59  A    between atoms: _137  and  _140
REMARK   60  A    between atoms: _140  and  _141
REMARK   61  A    between atoms: _141  and  _142
REMARK   62  A    between atoms: _142  and  _143
REMARK   63  A    between atoms: _143  and  _144
REMARK   64  A    between atoms: _148  and  _150
REMARK   65  A    between atoms: _150  and  _151
REMARK   66  A    between atoms: _150  and  _153
REMARK   67  A    between atoms: _153  and  _154
REMARK   68  A    between atoms: _157  and  _159
REMARK   69  A    between atoms: _159  and  _160
REMARK   70  A    between atoms: _159  and  _162
REMARK   71  A    between atoms: _162  and  _163
REMARK   72  A    between atoms: _166  and  _168
REMARK   73  A    between atoms: _168  and  _169
REMARK   74  A    between atoms: _168  and  _171
REMARK   75  A    between atoms: _171  and  _172
REMARK   76  A    between atoms: _175  and  _177
REMARK   77  A    between atoms: _177  and  _178
REMARK   78  A    between atoms: _177  and  _180
REMARK   79  A    between atoms: _180  and  _181
REMARK   80  A    between atoms: _181  and  _182
REMARK   81  A    between atoms: _182  and  _183
REMARK   82  A    between atoms: _183  and  _184
REMARK   83  A    between atoms: _188  and  _190
REMARK   84  A    between atoms: _190  and  _191
REMARK   85  A    between atoms: _190  and  _193
REMARK   86  A    between atoms: _196  and  _198
REMARK   87  A    between atoms: _198  and  _199
REMARK   88  A    between atoms: _198  and  _201
REMARK   89  A    between atoms: _201  and  _202
REMARK   90  A    between atoms: _205  and  _207
REMARK   91  A    between atoms: _207  and  _208
REMARK   92  A    between atoms: _207  and  _210
REMARK   93  A    between atoms: _210  and  _211
REMARK   94  A    between atoms: _211  and  _212
REMARK   95  A    between atoms: _217  and  _219
REMARK   96  A    between atoms: _219  and  _220
REMARK   97  A    between atoms: _219  and  _222
REMARK   98  A    between atoms: _222  and  _223
REMARK   99  A    between atoms: _226  and  _228
REMARK  100  A    between atoms: _228  and  _229
REMARK  101  A    between atoms: _228  and  _231
REMARK  102  A    between atoms: _231  and  _232
REMARK  103  A    between atoms: _232  and  _233
REMARK  104  A    between atoms: _236  and  _238
REMARK  105  A    between atoms: _238  and  _239
REMARK  106  A    between atoms: _238  and  _241
REMARK  107  A    between atoms: _244  and  _246
REMARK  108  A    between atoms: _246  and  _247
REMARK  109  A    between atoms: _246  and  _249
REMARK  110  A    between atoms: _249  and  _250
REMARK  111  A    between atoms: _250  and  _251
REMARK  112  A    between atoms: _251  and  _252
REMARK  113  A    between atoms: _252  and  _253
REMARK  114  A    between atoms: _257  and  _259
REMARK  115  A    between atoms: _259  and  _260
REMARK  116  A    between atoms: _259  and  _262
REMARK  117  A    between atoms: _262  and  _263
REMARK  118  A    between atoms: _266  and  _268
REMARK  119  A    between atoms: _268  and  _269
REMARK  120  A    between atoms: _268  and  _271
REMARK  121  A    between atoms: _271  and  _272
REMARK  122  A    between atoms: _272  and  _273
REMARK  123  A    between atoms: _276  and  _278
REMARK  124  A    between atoms: _278  and  _279
REMARK  125  A    between atoms: _278  and  _281
REMARK  126  A    between atoms: _281  and  _282
REMARK  127  A    between atoms: _282  and  _283
REMARK  128  A    between atoms: _285  and  _287
REMARK  129  A    between atoms: _287  and  _288
REMARK  130  A    between atoms: _287  and  _290
REMARK  131  A    between atoms: _293  and  _295
REMARK  132  A    between atoms: _295  and  _296
REMARK  133  A    between atoms: _295  and  _298
REMARK  134  A    between atoms: _298  and  _299
REMARK  135  A    between atoms: _299  and  _300
REMARK  136  A    between atoms: _302  and  _304
REMARK  137  A    between atoms: _304  and  _305
REMARK  138  A    between atoms: _304  and  _307
REMARK  139  A    between atoms: _307  and  _308
REMARK  140  A    between atoms: _308  and  _309
REMARK  141  A    between atoms: _312  and  _314
REMARK  142  A    between atoms: _314  and  _315
REMARK  143  A    between atoms: _314  and  _317
REMARK  144  A    between atoms: _317  and  _318
REMARK  145  A    between atoms: _323  and  _324
REMARK  146  A    between atoms: _326  and  _328
REMARK  147  A    between atoms: _328  and  _329
REMARK  148  A    between atoms: _328  and  _331
REMARK  149  A    between atoms: _335  and  _336
REMARK  150  A    between atoms: _341  and  _343
REMARK  151  A    between atoms: _343  and  _344
REMARK  152  A    between atoms: _346  and  _348
REMARK  153  A    between atoms: _348  and  _349
REMARK  154  A    between atoms: _351  and  _353
REMARK  155  A    between atoms: _353  and  _354
REMARK  156  A    between atoms: _353  and  _356
REMARK  157  A    between atoms: _356  and  _357
REMARK  158  A    between atoms: _357  and  _358
REMARK  159  A    between atoms: _361  and  _363
REMARK  160  A    between atoms: _363  and  _364
REMARK  161  A    between atoms: _363  and  _366
REMARK  162  A    between atoms: _366  and  _367
REMARK  163  A    between atoms: _367  and  _368
REMARK  164  A    between atoms: _370  and  _372
REMARK  165  A    between atoms: _372  and  _373
REMARK  166  A    between atoms: _372  and  _375
REMARK  167  A    between atoms: _375  and  _376
REMARK  168  A    between atoms: _382  and  _384
REMARK  169  A    between atoms: _384  and  _385
REMARK  170  A    between atoms: _384  and  _387
REMARK  171  A    between atoms: _387  and  _388
REMARK  172  A    between atoms: _390  and  _392
REMARK  173  A    between atoms: _392  and  _393
REMARK  174  A    between atoms: _392  and  _395
REMARK  175  A    between atoms: _395  and  _396
REMARK  176  A    between atoms: _401  and  _402
REMARK  177  A    between atoms: _404  and  _406
REMARK  178  A    between atoms: _406  and  _407
REMARK  179  A    between atoms: _406  and  _409
REMARK  180  A    between atoms: _409  and  _410
REMARK  181  A    between atoms: _410  and  _411
REMARK  182  A    between atoms: _411  and  _412
REMARK  183  A    between atoms: _421  and  _423
REMARK  184  A    between atoms: _423  and  _424
REMARK  185  A    between atoms: _423  and  _426
REMARK  186  A    between atoms: _426  and  _427
REMARK  187  A    between atoms: _430  and  _432
REMARK  188  A    between atoms: _432  and  _433
REMARK  189  A    between atoms: _432  and  _435
REMARK  190  A    between atoms: _435  and  _436
REMARK  191  A    between atoms: _439  and  _441
REMARK  192  A    between atoms: _441  and  _442
REMARK  193  A    between atoms: _441  and  _444
REMARK  194  A    between atoms: _444  and  _445
REMARK  195  A    between atoms: _445  and  _446
REMARK  196  A    between atoms: _446  and  _447
REMARK  197  A    between atoms: _447  and  _448
REMARK  198  A    between atoms: _453  and  _454
REMARK  199  A    between atoms: _459  and  _461
REMARK  200  A    between atoms: _461  and  _462
REMARK  201  A    between atoms: _461  and  _464
REMARK  202  A    between atoms: _464  and  _465
REMARK  203  A    between atoms: _465  and  _466
REMARK  204  A    between atoms: _469  and  _471
REMARK  205  A    between atoms: _471  and  _472
REMARK  206  A    between atoms: _471  and  _474
REMARK  207  A    between atoms: _474  and  _475
REMARK  208  A    between atoms: _480  and  _482
REMARK  209  A    between atoms: _482  and  _483
REMARK  210  A    between atoms: _482  and  _485
REMARK  211  A    between atoms: _485  and  _486
REMARK  212  A    between atoms: _489  and  _491
REMARK  213  A    between atoms: _491  and  _492
REMARK  214  A    between atoms: _491  and  _494
REMARK  215  A    between atoms: _494  and  _495
REMARK  216  A    between atoms: _498  and  _500
REMARK  217  A    between atoms: _500  and  _501
REMARK  218  A    between atoms: _500  and  _503
REMARK  219  A    between atoms: _503  and  _504
REMARK  220  A    between atoms: _507  and  _509
REMARK  221  A    between atoms: _509  and  _510
REMARK  222  A    between atoms: _509  and  _512
REMARK  223  A    between atoms: _512  and  _513
REMARK  224  A    between atoms: _513  and  _514
REMARK  225  A    between atoms: _519  and  _521
REMARK  226  A    between atoms: _521  and  _522
REMARK  227  A    between atoms: _521  and  _524
REMARK  228  A    between atoms: _527  and  _529
REMARK  229  A    between atoms: _529  and  _530
REMARK  230  A    between atoms: _529  and  _532
REMARK  231  A    between atoms: _532  and  _533
REMARK  232  A    between atoms: _536  and  _538
REMARK  233  A    between atoms: _538  and  _539
REMARK  234  A    between atoms: _538  and  _541
REMARK  235  A    between atoms: _541  and  _542
REMARK  236  A    between atoms: _545  and  _547
REMARK  237  A    between atoms: _547  and  _548
REMARK  238  A    between atoms: _547  and  _550
REMARK  239  A    between atoms: _550  and  _551
REMARK  240  A    between atoms: _557  and  _559
REMARK  241  A    between atoms: _559  and  _560
REMARK  242  A    between atoms: _562  and  _564
REMARK  243  A    between atoms: _564  and  _565
REMARK  244  A    between atoms: _564  and  _567
REMARK  245  A    between atoms: _567  and  _568
REMARK  246  A    between atoms: _574  and  _576
REMARK  247  A    between atoms: _576  and  _577
REMARK  248  A    between atoms: _576  and  _579
REMARK  249  A    between atoms: _581  and  _583
REMARK  250  A    between atoms: _583  and  _584
REMARK  251  A    between atoms: _586  and  _588
REMARK  252  A    between atoms: _588  and  _589
REMARK  253  A    between atoms: _588  and  _591
REMARK  254  A    between atoms: _591  and  _592
REMARK  255  A    between atoms: _596  and  _597
REMARK  256  A    between atoms: _602  and  _604
REMARK  257  A    between atoms: _604  and  _605
REMARK  258  A    between atoms: _604  and  _607
REMARK  259  A    between atoms: _607  and  _608
REMARK  260  A    between atoms: _613  and  _614
REMARK  261  A    between atoms: _616  and  _618
REMARK  262  A    between atoms: _618  and  _619
REMARK  263  A    between atoms: _618  and  _621
REMARK  264  A    between atoms: _621  and  _622
REMARK  265  A    between atoms: _625  and  _627
REMARK  266  A    between atoms: _627  and  _628
REMARK  267  A    between atoms: _627  and  _630
REMARK  268  A    between atoms: _630  and  _631
REMARK  269  A    between atoms: _636  and  _638
REMARK  270  A    between atoms: _638  and  _639
REMARK  271  A    between atoms: _638  and  _641
REMARK  272  A    between atoms: _641  and  _642
REMARK  273  A    between atoms: _648  and  _650
REMARK  274  A    between atoms: _650  and  _651
REMARK  275  A    between atoms: _650  and  _653
REMARK  276  A    between atoms: _653  and  _654
REMARK  277  A    between atoms: _657  and  _659
REMARK  278  A    between atoms: _659  and  _660
REMARK  279  A    between atoms: _659  and  _662
REMARK  280  A    between atoms: _662  and  _663
REMARK  281  A    between atoms: _668  and  _669
REMARK  282  A    between atoms: _671  and  _673
REMARK  283  A    between atoms: _673  and  _674
REMARK  284  A    between atoms: _673  and  _676
REMARK  285  A    between atoms: _676  and  _677
REMARK  286  A    between atoms: _677  and  _678
REMARK                            x       y       z     vdW  Elec       q    Type
REMARK                         _______ _______ _______ _____ _____    ______ ____
ROOT
ATOM      1  CA  PHE A   2      28.060  34.676   9.283  0.00  0.00    +0.153 C 
ENDROOT
BRANCH   1   4
ATOM      2  C   ASN A   1      26.237  35.606  10.610  0.00  0.00    +0.239 C 
ATOM      3  O   ASN A   1      26.606  35.005  11.622  0.00  0.00    -0.274 OA
ATOM      4  N   PHE A   2      26.887  35.513   9.461  0.00  0.00    -0.297 N 
ATOM      5  H   PHE A   2      26.542  36.064   8.649  0.00  0.00    +0.150 HD
BRANCH   2   6
ATOM      6  CA  ASN A   1      25.011  36.562  10.626  0.00  0.00    +0.154 C 
BRANCH   6   7
ATOM      7  N   ASN A   1      24.686  37.250   9.348  0.00  0.00    -0.238 NA
ATOM      8  H   ASN A   1      23.978  36.828   8.713  0.00  0.00    +0.142 HD
ENDBRANCH   6   7
BRANCH   6   9
ATOM      9  CB  ASN A   1      23.766  35.882  11.203  0.00  0.00    +0.111 C 
BRANCH   9  10
ATOM     10  CG  ASN A   1      22.641  36.858  11.505  0.00  0.00    +0.221 C 
ATOM     11  OD1 ASN A   1      22.739  37.695  12.395  0.00  0.00    -0.275 OA
ATOM     12  ND2 ASN A   1      21.558  36.737  10.774  0.00  0.00    -0.329 N 
ATOM     13 HD21 ASN A   1      20.745  37.364  10.941  0.00  0.00    +0.145 HD
ATOM     14 HD22 ASN A   1      21.513  36.014  10.028  0.00  0.00    +0.145 HD
ENDBRANCH   9  10
ENDBRANCH   6   9
ENDBRANCH   2   6
ENDBRANCH   1   4
BRANCH   1  15
ATOM     15  C   PHE A   2      29.279  35.539   9.019  0.00  0.00    +0.241 C 
ATOM     16  N   ASP A   3      30.430  35.091   9.543  0.00  0.00    -0.298 N 
ATOM     17  H   ASP A   3      30.407  34.266  10.176  0.00  0.00    +0.150 HD
ATOM     18  O   PHE A   2      29.166  36.600   8.362  0.00  0.00    -0.273 OA
BRANCH  16  19
ATOM     19  CA  ASP A   3      31.724  35.728   9.251  0.00  0.00    +0.148 C 
BRANCH  19  20
ATOM     20  C   ASP A   3      32.121  35.490   7.776  0.00  0.00    +0.227 C 
ATOM     21  O   ASP A   3      31.540  34.651   7.098  0.00  0.00    -0.286 OA
ENDBRANCH  19  20
BRANCH  19  22
ATOM     22  CB  ASP A   3      32.839  35.284  10.249  0.00  0.00    +0.142 C 
BRANCH  22  23
ATOM     23  CG  ASP A   3      32.646  35.866  11.667  0.00  0.00    +0.367 C 
ATOM     24  OD2 ASP A   3      33.033  35.213  12.658  0.00  0.00    -0.246 OA
ATOM     25  OD1 ASP A   3      32.091  36.977  11.809  0.00  0.00    -0.246 OA
ENDBRANCH  22  23
ENDBRANCH  19  22
ENDBRANCH  16  19
ENDBRANCH   1  15
BRANCH   1  26
ATOM     26  CB  PHE A   2      27.866  33.679   8.120  0.00  0.00    +0.055 C 
BRANCH  26  27
ATOM     27  CG  PHE A   2      26.916  32.542   8.445  0.00  0.00    -0.020 A 
ATOM     28  CD2 PHE A   2      27.401  31.343   8.986  0.00  0.00    -0.004 A 
ATOM     29  CE2 PHE A   2      26.519  30.300   9.302  0.00  0.00    -0.000 A 
ATOM     30  CZ  PHE A   2      25.137  30.458   9.064  0.00  0.00    -0.000 A 
ATOM     31  CE1 PHE A   2      24.654  31.619   8.513  0.00  0.00    -0.000 A 
ATOM     32  CD1 PHE A   2      25.535  32.669   8.207  0.00  0.00    -0.004 A 
ENDBRANCH  26  27
ENDBRANCH   1  26
TORSDOF 12
REMARK  Name = ../refined-set-2016/3bwj/3bwj_pocket.pdb
REMARK  286 active torsions:
REMARK  status: ('A' for Active; 'I' for Inactive)
REMARK    1  A    between atoms: _1  and  _3
REMARK    2  A    between atoms: _3  and  _4
REMARK    3  A    between atoms: _3  and  _6
REMARK    4  A    between atoms: _6  and  _7
REMARK    5  A    between atoms: _10  and  _12
REMARK    6  A    between atoms: _12  and  _13
REMARK    7  A    between atoms: _12  and  _15
REMARK    8  A    between atoms: _15  and  _16
REMARK    9  A    between atoms: _19  and  _21
REMARK   10  A    between atoms: _21  and  _22
REMARK   11  A    between atoms: _24  and  _26
REMARK   12  A    between atoms: _26  and  _27
REMARK   13  A    between atoms: _26  and  _29
REMARK   14  A    between atoms: _29  and  _30
REMARK   15  A    between atoms: _33  and  _35
REMARK   16  A    between atoms: _35  and  _36
REMARK   17  A    between atoms: _38  and  _40
REMARK   18  A    between atoms: _40  and  _41
REMARK   19  A    between atoms: _40  and  _43
REMARK   20  A    between atoms: _43  and  _44
REMARK   21  A    between atoms: _46  and  _48
REMARK   22  A    between atoms: _48  and  _49
REMARK   23  A    between atoms: _48  and  _51
REMARK   24  A    between atoms: _51  and  _52
REMARK   25  A    between atoms: _58  and  _60
REMARK   26  A    between atoms: _60  and  _61
REMARK   27  A    between atoms: _63  and  _65
REMARK   28  A    between atoms: _65  and  _66
REMARK   29  A    between atoms: _65  and  _68
REMARK   30  A    between atoms: _68  and  _69
REMARK   31  A    between atoms: _69  and  _70
REMARK   32  A    between atoms: _70  and  _71
REMARK   33  A    between atoms: _80  and  _82
REMARK   34  A    between atoms: _82  and  _83
REMARK   35  A    between atoms: _82  and  _85
REMARK   36  A    between atoms: _88  and  _90
REMARK   37  A    between atoms: _90  and  _91
REMARK   38  A    between atoms: _90  and  _93
REMARK   39  A    between atoms: _93  and  _94
REMARK   40  A    between atoms: _94  and  _95
REMARK   41  A    between atoms: _97  and  _99
REMARK   42  A    between atoms: _99  and  _100
REMARK   43  A    between atoms: _99  and  _102
REMARK   44  A    between atoms: _102  and  _103
REMARK   45  A    between atoms: _106  and  _108
REMARK   46  A    between atoms: _108  and  _109
REMARK   47  A    between atoms: _108  and  _111
REMARK   48  A    between atoms: _111  and  _112
REMARK   49  A    between atoms: _117  and  _118
REMARK   50  A    between atoms: _120  and  _122
REMARK   51  A    between atoms: _122  and  _123
REMARK   52  A    between atoms: _126  and  _128
REMARK   53  A    between atoms: _128  and  _129
REMARK   54  A    between atoms: _128  and  _131
REMARK   55  A    between atoms: _131  and  _132
REMARK   56  A    between atoms: _132  and  _133
REMARK   57  A    between atoms: _135  and  _137
REMARK   58  A    between atoms: _137  and  _138
REMARK   59  A    between atoms: _137  and  _140
REMARK   60  A    between atoms: _140  and  _141
REMARK   61  A    between atoms: _141  and  _142
REMARK   62  A    between atoms: _142  and  _143
REMARK   63  A    between atoms: _143  and  _144
REMARK   64  A    between atoms: _148  and  _150
REMARK   65  A    between atoms: _150  and  _151
REMARK   66  A    between atoms: _150  and  _153
REMARK   67  A    between atoms: _153  and  _154
REMARK   68  A    between atoms: _157  and  _159
REMARK   69  A    between atoms: _159  and  _160
REMARK   70  A    between atoms: _159  and  _162
REMARK   71  A    between atoms: _162  and  _163
REMARK   72  A    between atoms: _166  and  _168
REMARK   73  A    between atoms: _168  and  _169
REMARK   74  A    between atoms: _168  and  _171
REMARK   75  A    between atoms: _171  and  _172
REMARK   76  A    between atoms: _175  and  _177
REMARK   77  A    between atoms: _177  and  _178
REMARK   78  A    between atoms: _177  and  _180
REMARK   79  A    between atoms: _180  and  _181
REMARK   80  A    between atoms: _181  and  _182
REMARK   81  A    between atoms: _182  and  _183
REMARK   82  A    between atoms: _183  and  _184
REMARK   83  A    between atoms: _188  and  _190
REMARK   84  A    between atoms: _190  and  _191
REMARK   85  A    between atoms: _190  and  _193
REMARK   86  A    between atoms: _196  and  _198
REMARK   87  A    between atoms: _198  and  _199
REMARK   88  A    between atoms: _198  and  _201
REMARK   89  A    between atoms: _201  and  _202
REMARK   90  A    between atoms: _205  and  _207
REMARK   91  A    between atoms: _207  and  _208
REMARK   92  A    between atoms: _207  and  _210
REMARK   93  A    between atoms: _210  and  _211
REMARK   94  A    between atoms: _211  and  _212
REMARK   95  A    between atoms: _217  and  _219
REMARK   96  A    between atoms: _219  and  _220
REMARK   97  A    between atoms: _219  and  _222
REMARK   98  A    between atoms: _222  and  _223
REMARK   99  A    between atoms: _226  and  _228
REMARK  100  A    between atoms: _228  and  _229
REMARK  101  A    between atoms: _228  and  _231
REMARK  102  A    between atoms: _231  and  _232
REMARK  103  A    between atoms: _232  and  _233
REMARK  104  A    between atoms: _236  and  _238
REMARK  105  A    between atoms: _238  and  _239
REMARK  106  A    between atoms: _238  and  _241
REMARK  107  A    between atoms: _244  and  _246
REMARK  108  A    between atoms: _246  and  _247
REMARK  109  A    between atoms: _246  and  _249
REMARK  110  A    between atoms: _249  and  _250
REMARK  111  A    between atoms: _250  and  _251
REMARK  112  A    between atoms: _251  and  _252
REMARK  113  A    between atoms: _252  and  _253
REMARK  114  A    between atoms: _257  and  _259
REMARK  115  A    between atoms: _259  and  _260
REMARK  116  A    between atoms: _259  and  _262
REMARK  117  A    between atoms: _262  and  _263
REMARK  118  A    between atoms: _266  and  _268
REMARK  119  A    between atoms: _268  and  _269
REMARK  120  A    between atoms: _268  and  _271
REMARK  121  A    between atoms: _271  and  _272
REMARK  122  A    between atoms: _272  and  _273
REMARK  123  A    between atoms: _276  and  _278
REMARK  124  A    between atoms: _278  and  _279
REMARK  125  A    between atoms: _278  and  _281
REMARK  126  A    between atoms: _281  and  _282
REMARK  127  A    between atoms: _282  and  _283
REMARK  128  A    between atoms: _285  and  _287
REMARK  129  A    between atoms: _287  and  _288
REMARK  130  A    between atoms: _287  and  _290
REMARK  131  A    between atoms: _293  and  _295
REMARK  132  A    between atoms: _295  and  _296
REMARK  133  A    between atoms: _295  and  _298
REMARK  134  A    between atoms: _298  and  _299
REMARK  135  A    between atoms: _299  and  _300
REMARK  136  A    between atoms: _302  and  _304
REMARK  137  A    between atoms: _304  and  _305
REMARK  138  A    between atoms: _304  and  _307
REMARK  139  A    between atoms: _307  and  _308
REMARK  140  A    between atoms: _308  and  _309
REMARK  141  A    between atoms: _312  and  _314
REMARK  142  A    between atoms: _314  and  _315
REMARK  143  A    between atoms: _314  and  _317
REMARK  144  A    between atoms: _317  and  _318
REMARK  145  A    between atoms: _323  and  _324
REMARK  146  A    between atoms: _326  and  _328
REMARK  147  A    between atoms: _328  and  _329
REMARK  148  A    between atoms: _328  and  _331
REMARK  149  A    between atoms: _335  and  _336
REMARK  150  A    between atoms: _341  and  _343
REMARK  151  A    between atoms: _343  and  _344
REMARK  152  A    between atoms: _346  and  _348
REMARK  153  A    between atoms: _348  and  _349
REMARK  154  A    between atoms: _351  and  _353
REMARK  155  A    between atoms: _353  and  _354
REMARK  156  A    between atoms: _353  and  _356
REMARK  157  A    between atoms: _356  and  _357
REMARK  158  A    between atoms: _357  and  _358
REMARK  159  A    between atoms: _361  and  _363
REMARK  160  A    between atoms: _363  and  _364
REMARK  161  A    between atoms: _363  and  _366
REMARK  162  A    between atoms: _366  and  _367
REMARK  163  A    between atoms: _367  and  _368
REMARK  164  A    between atoms: _370  and  _372
REMARK  165  A    between atoms: _372  and  _373
REMARK  166  A    between atoms: _372  and  _375
REMARK  167  A    between atoms: _375  and  _376
REMARK  168  A    between atoms: _382  and  _384
REMARK  169  A    between atoms: _384  and  _385
REMARK  170  A    between atoms: _384  and  _387
REMARK  171  A    between atoms: _387  and  _388
REMARK  172  A    between atoms: _390  and  _392
REMARK  173  A    between atoms: _392  and  _393
REMARK  174  A    between atoms: _392  and  _395
REMARK  175  A    between atoms: _395  and  _396
REMARK  176  A    between atoms: _401  and  _402
REMARK  177  A    between atoms: _404  and  _406
REMARK  178  A    between atoms: _406  and  _407
REMARK  179  A    between atoms: _406  and  _409
REMARK  180  A    between atoms: _409  and  _410
REMARK  181  A    between atoms: _410  and  _411
REMARK  182  A    between atoms: _411  and  _412
REMARK  183  A    between atoms: _421  and  _423
REMARK  184  A    between atoms: _423  and  _424
REMARK  185  A    between atoms: _423  and  _426
REMARK  186  A    between atoms: _426  and  _427
REMARK  187  A    between atoms: _430  and  _432
REMARK  188  A    between atoms: _432  and  _433
REMARK  189  A    between atoms: _432  and  _435
REMARK  190  A    between atoms: _435  and  _436
REMARK  191  A    between atoms: _439  and  _441
REMARK  192  A    between atoms: _441  and  _442
REMARK  193  A    between atoms: _441  and  _444
REMARK  194  A    between atoms: _444  and  _445
REMARK  195  A    between atoms: _445  and  _446
REMARK  196  A    between atoms: _446  and  _447
REMARK  197  A    between atoms: _447  and  _448
REMARK  198  A    between atoms: _453  and  _454
REMARK  199  A    between atoms: _459  and  _461
REMARK  200  A    between atoms: _461  and  _462
REMARK  201  A    between atoms: _461  and  _464
REMARK  202  A    between atoms: _464  and  _465
REMARK  203  A    between atoms: _465  and  _466
REMARK  204  A    between atoms: _469  and  _471
REMARK  205  A    between atoms: _471  and  _472
REMARK  206  A    between atoms: _471  and  _474
REMARK  207  A    between atoms: _474  and  _475
REMARK  208  A    between atoms: _480  and  _482
REMARK  209  A    between atoms: _482  and  _483
REMARK  210  A    between atoms: _482  and  _485
REMARK  211  A    between atoms: _485  and  _486
REMARK  212  A    between atoms: _489  and  _491
REMARK  213  A    between atoms: _491  and  _492
REMARK  214  A    between atoms: _491  and  _494
REMARK  215  A    between atoms: _494  and  _495
REMARK  216  A    between atoms: _498  and  _500
REMARK  217  A    between atoms: _500  and  _501
REMARK  218  A    between atoms: _500  and  _503
REMARK  219  A    between atoms: _503  and  _504
REMARK  220  A    between atoms: _507  and  _509
REMARK  221  A    between atoms: _509  and  _510
REMARK  222  A    between atoms: _509  and  _512
REMARK  223  A    between atoms: _512  and  _513
REMARK  224  A    between atoms: _513  and  _514
REMARK  225  A    between atoms: _519  and  _521
REMARK  226  A    between atoms: _521  and  _522
REMARK  227  A    between atoms: _521  and  _524
REMARK  228  A    between atoms: _527  and  _529
REMARK  229  A    between atoms: _529  and  _530
REMARK  230  A    between atoms: _529  and  _532
REMARK  231  A    between atoms: _532  and  _533
REMARK  232  A    between atoms: _536  and  _538
REMARK  233  A    between atoms: _538  and  _539
REMARK  234  A    between atoms: _538  and  _541
REMARK  235  A    between atoms: _541  and  _542
REMARK  236  A    between atoms: _545  and  _547
REMARK  237  A    between atoms: _547  and  _548
REMARK  238  A    between atoms: _547  and  _550
REMARK  239  A    between atoms: _550  and  _551
REMARK  240  A    between atoms: _557  and  _559
REMARK  241  A    between atoms: _559  and  _560
REMARK  242  A    between atoms: _562  and  _564
REMARK  243  A    between atoms: _564  and  _565
REMARK  244  A    between atoms: _564  and  _567
REMARK  245  A    between atoms: _567  and  _568
REMARK  246  A    between atoms: _574  and  _576
REMARK  247  A    between atoms: _576  and  _577
REMARK  248  A    between atoms: _576  and  _579
REMARK  249  A    between atoms: _581  and  _583
REMARK  250  A    between atoms: _583  and  _584
REMARK  251  A    between atoms: _586  and  _588
REMARK  252  A    between atoms: _588  and  _589
REMARK  253  A    between atoms: _588  and  _591
REMARK  254  A    between atoms: _591  and  _592
REMARK  255  A    between atoms: _596  and  _597
REMARK  256  A    between atoms: _602  and  _604
REMARK  257  A    between atoms: _604  and  _605
REMARK  258  A    between atoms: _604  and  _607
REMARK  259  A    between atoms: _607  and  _608
REMARK  260  A    between atoms: _613  and  _614
REMARK  261  A    between atoms: _616  and  _618
REMARK  262  A    between atoms: _618  and  _619
REMARK  263  A    between atoms: _618  and  _621
REMARK  264  A    between atoms: _621  and  _622
REMARK  265  A    between atoms: _625  and  _627
REMARK  266  A    between atoms: _627  and  _628
REMARK  267  A    between atoms: _627  and  _630
REMARK  268  A    between atoms: _630  and  _631
REMARK  269  A    between atoms: _636  and  _638
REMARK  270  A    between atoms: _638  and  _639
REMARK  271  A    between atoms: _638  and  _641
REMARK  272  A    between atoms: _641  and  _642
REMARK  273  A    between atoms: _648  and  _650
REMARK  274  A    between atoms: _650  and  _651
REMARK  275  A    between atoms: _650  and  _653
REMARK  276  A    between atoms: _653  and  _654
REMARK  277  A    between atoms: _657  and  _659
REMARK  278  A    between atoms: _659  and  _660
REMARK  279  A    between atoms: _659  and  _662
REMARK  280  A    between atoms: _662  and  _663
REMARK  281  A    between atoms: _668  and  _669
REMARK  282  A    between atoms: _671  and  _673
REMARK  283  A    between atoms: _673  and  _674
REMARK  284  A    between atoms: _673  and  _676
REMARK  285  A    between atoms: _676  and  _677
REMARK  286  A    between atoms: _677  and  _678
REMARK                            x       y       z     vdW  Elec       q    Type
REMARK                         _______ _______ _______ _____ _____    ______ ____
ROOT
ATOM      1  CG  TYR A   1      35.225  31.976   6.118  0.00  0.00    -0.020 A 
ATOM      2  CD2 TYR A   1      36.176  31.735   7.129  0.00  0.00    -0.001 A 
ATOM      3  CE2 TYR A   1      35.783  31.500   8.419  0.00  0.00    +0.036 A 
ATOM      4  CZ  TYR A   1      34.420  31.494   8.726  0.00  0.00    +0.134 A 
ATOM      5  CE1 TYR A   1      33.484  31.740   7.742  0.00  0.00    +0.036 A 
ATOM      6  CD1 TYR A   1      33.882  31.973   6.462  0.00  0.00    -0.001 A 
ENDROOT
BRANCH   4   7
ATOM      7  OH  TYR A   1      33.982  31.272  10.018  0.00  0.00    -0.506 OA
ATOM      8  HH  TYR A   1      32.993  31.305  10.040  0.00  0.00    +0.292 HD
ENDBRANCH   4   7
BRANCH   1   9
ATOM      9  CB  TYR A   1      35.651  32.253   4.698  0.00  0.00    +0.051 C 
BRANCH   9  10
ATOM     10  CA  TYR A   1      36.079  33.726   4.463  0.00  0.00    +0.137 C 
BRANCH  10  11
ATOM     11  N   TYR A   1      34.958  34.631   4.719  0.00  0.00    -0.239 NA
ATOM     12  H   TYR A   1      34.209  34.700   4.000  0.00  0.00    +0.142 HD
ENDBRANCH  10  11
BRANCH  10  13
ATOM     13  C   TYR A   1      36.528  33.907   3.016  0.00  0.00    +0.224 C 
ATOM     14  O   TYR A   1      35.734  34.322   2.162  0.00  0.00    -0.287 OA
ENDBRANCH  10  13
ENDBRANCH   9  10
ENDBRANCH   1   9
TORSDOF 5
REMARK  Name = ../refined-set-2016/3bwj/3bwj_pocket.pdb
REMARK  286 active torsions:
REMARK  status: ('A' for Active; 'I' for Inactive)
REMARK    1  A    between atoms: _1  and  _3
REMARK    2  A    between atoms: _3  and  _4
REMARK    3  A    between atoms: _3  and  _6
REMARK    4  A    between atoms: _6  and  _7
REMARK    5  A    between atoms: _10  and  _12
REMARK    6  A    between atoms: _12  and  _13
REMARK    7  A    between atoms: _12  and  _15
REMARK    8  A    between atoms: _15  and  _16
REMARK    9  A    between atoms: _19  and  _21
REMARK   10  A    between atoms: _21  and  _22
REMARK   11  A    between atoms: _24  and  _26
REMARK   12  A    between atoms: _26  and  _27
REMARK   13  A    between atoms: _26  and  _29
REMARK   14  A    between atoms: _29  and  _30
REMARK   15  A    between atoms: _33  and  _35
REMARK   16  A    between atoms: _35  and  _36
REMARK   17  A    between atoms: _38  and  _40
REMARK   18  A    between atoms: _40  and  _41
REMARK   19  A    between atoms: _40  and  _43
REMARK   20  A    between atoms: _43  and  _44
REMARK   21  A    between atoms: _46  and  _48
REMARK   22  A    between atoms: _48  and  _49
REMARK   23  A    between atoms: _48  and  _51
REMARK   24  A    between atoms: _51  and  _52
REMARK   25  A    between atoms: _58  and  _60
REMARK   26  A    between atoms: _60  and  _61
REMARK   27  A    between atoms: _63  and  _65
REMARK   28  A    between atoms: _65  and  _66
REMARK   29  A    between atoms: _65  and  _68
REMARK   30  A    between atoms: _68  and  _69
REMARK   31  A    between atoms: _69  and  _70
REMARK   32  A    between atoms: _70  and  _71
REMARK   33  A    between atoms: _80  and  _82
REMARK   34  A    between atoms: _82  and  _83
REMARK   35  A    between atoms: _82  and  _85
REMARK   36  A    between atoms: _88  and  _90
REMARK   37  A    between atoms: _90  and  _91
REMARK   38  A    between atoms: _90  and  _93
REMARK   39  A    between atoms: _93  and  _94
REMARK   40  A    between atoms: _94  and  _95
REMARK   41  A    between atoms: _97  and  _99
REMARK   42  A    between atoms: _99  and  _100
REMARK   43  A    between atoms: _99  and  _102
REMARK   44  A    between atoms: _102  and  _103
REMARK   45  A    between atoms: _106  and  _108
REMARK   46  A    between atoms: _108  and  _109
REMARK   47  A    between atoms: _108  and  _111
REMARK   48  A    between atoms: _111  and  _112
REMARK   49  A    between atoms: _117  and  _118
REMARK   50  A    between atoms: _120  and  _122
REMARK   51  A    between atoms: _122  and  _123
REMARK   52  A    between atoms: _126  and  _128
REMARK   53  A    between atoms: _128  and  _129
REMARK   54  A    between atoms: _128  and  _131
REMARK   55  A    between atoms: _131  and  _132
REMARK   56  A    between atoms: _132  and  _133
REMARK   57  A    between atoms: _135  and  _137
REMARK   58  A    between atoms: _137  and  _138
REMARK   59  A    between atoms: _137  and  _140
REMARK   60  A    between atoms: _140  and  _141
REMARK   61  A    between atoms: _141  and  _142
REMARK   62  A    between atoms: _142  and  _143
REMARK   63  A    between atoms: _143  and  _144
REMARK   64  A    between atoms: _148  and  _150
REMARK   65  A    between atoms: _150  and  _151
REMARK   66  A    between atoms: _150  and  _153
REMARK   67  A    between atoms: _153  and  _154
REMARK   68  A    between atoms: _157  and  _159
REMARK   69  A    between atoms: _159  and  _160
REMARK   70  A    between atoms: _159  and  _162
REMARK   71  A    between atoms: _162  and  _163
REMARK   72  A    between atoms: _166  and  _168
REMARK   73  A    between atoms: _168  and  _169
REMARK   74  A    between atoms: _168  and  _171
REMARK   75  A    between atoms: _171  and  _172
REMARK   76  A    between atoms: _175  and  _177
REMARK   77  A    between atoms: _177  and  _178
REMARK   78  A    between atoms: _177  and  _180
REMARK   79  A    between atoms: _180  and  _181
REMARK   80  A    between atoms: _181  and  _182
REMARK   81  A    between atoms: _182  and  _183
REMARK   82  A    between atoms: _183  and  _184
REMARK   83  A    between atoms: _188  and  _190
REMARK   84  A    between atoms: _190  and  _191
REMARK   85  A    between atoms: _190  and  _193
REMARK   86  A    between atoms: _196  and  _198
REMARK   87  A    between atoms: _198  and  _199
REMARK   88  A    between atoms: _198  and  _201
REMARK   89  A    between atoms: _201  and  _202
REMARK   90  A    between atoms: _205  and  _207
REMARK   91  A    between atoms: _207  and  _208
REMARK   92  A    between atoms: _207  and  _210
REMARK   93  A    between atoms: _210  and  _211
REMARK   94  A    between atoms: _211  and  _212
REMARK   95  A    between atoms: _217  and  _219
REMARK   96  A    between atoms: _219  and  _220
REMARK   97  A    between atoms: _219  and  _222
REMARK   98  A    between atoms: _222  and  _223
REMARK   99  A    between atoms: _226  and  _228
REMARK  100  A    between atoms: _228  and  _229
REMARK  101  A    between atoms: _228  and  _231
REMARK  102  A    between atoms: _231  and  _232
REMARK  103  A    between atoms: _232  and  _233
REMARK  104  A    between atoms: _236  and  _238
REMARK  105  A    between atoms: _238  and  _239
REMARK  106  A    between atoms: _238  and  _241
REMARK  107  A    between atoms: _244  and  _246
REMARK  108  A    between atoms: _246  and  _247
REMARK  109  A    between atoms: _246  and  _249
REMARK  110  A    between atoms: _249  and  _250
REMARK  111  A    between atoms: _250  and  _251
REMARK  112  A    between atoms: _251  and  _252
REMARK  113  A    between atoms: _252  and  _253
REMARK  114  A    between atoms: _257  and  _259
REMARK  115  A    between atoms: _259  and  _260
REMARK  116  A    between atoms: _259  and  _262
REMARK  117  A    between atoms: _262  and  _263
REMARK  118  A    between atoms: _266  and  _268
REMARK  119  A    between atoms: _268  and  _269
REMARK  120  A    between atoms: _268  and  _271
REMARK  121  A    between atoms: _271  and  _272
REMARK  122  A    between atoms: _272  and  _273
REMARK  123  A    between atoms: _276  and  _278
REMARK  124  A    between atoms: _278  and  _279
REMARK  125  A    between atoms: _278  and  _281
REMARK  126  A    between atoms: _281  and  _282
REMARK  127  A    between atoms: _282  and  _283
REMARK  128  A    between atoms: _285  and  _287
REMARK  129  A    between atoms: _287  and  _288
REMARK  130  A    between atoms: _287  and  _290
REMARK  131  A    between atoms: _293  and  _295
REMARK  132  A    between atoms: _295  and  _296
REMARK  133  A    between atoms: _295  and  _298
REMARK  134  A    between atoms: _298  and  _299
REMARK  135  A    between atoms: _299  and  _300
REMARK  136  A    between atoms: _302  and  _304
REMARK  137  A    between atoms: _304  and  _305
REMARK  138  A    between atoms: _304  and  _307
REMARK  139  A    between atoms: _307  and  _308
REMARK  140  A    between atoms: _308  and  _309
REMARK  141  A    between atoms: _312  and  _314
REMARK  142  A    between atoms: _314  and  _315
REMARK  143  A    between atoms: _314  and  _317
REMARK  144  A    between atoms: _317  and  _318
REMARK  145  A    between atoms: _323  and  _324
REMARK  146  A    between atoms: _326  and  _328
REMARK  147  A    between atoms: _328  and  _329
REMARK  148  A    between atoms: _328  and  _331
REMARK  149  A    between atoms: _335  and  _336
REMARK  150  A    between atoms: _341  and  _343
REMARK  151  A    between atoms: _343  and  _344
REMARK  152  A    between atoms: _346  and  _348
REMARK  153  A    between atoms: _348  and  _349
REMARK  154  A    between atoms: _351  and  _353
REMARK  155  A    between atoms: _353  and  _354
REMARK  156  A    between atoms: _353  and  _356
REMARK  157  A    between atoms: _356  and  _357
REMARK  158  A    between atoms: _357  and  _358
REMARK  159  A    between atoms: _361  and  _363
REMARK  160  A    between atoms: _363  and  _364
REMARK  161  A    between atoms: _363  and  _366
REMARK  162  A    between atoms: _366  and  _367
REMARK  163  A    between atoms: _367  and  _368
REMARK  164  A    between atoms: _370  and  _372
REMARK  165  A    between atoms: _372  and  _373
REMARK  166  A    between atoms: _372  and  _375
REMARK  167  A    between atoms: _375  and  _376
REMARK  168  A    between atoms: _382  and  _384
REMARK  169  A    between atoms: _384  and  _385
REMARK  170  A    between atoms: _384  and  _387
REMARK  171  A    between atoms: _387  and  _388
REMARK  172  A    between atoms: _390  and  _392
REMARK  173  A    between atoms: _392  and  _393
REMARK  174  A    between atoms: _392  and  _395
REMARK  175  A    between atoms: _395  and  _396
REMARK  176  A    between atoms: _401  and  _402
REMARK  177  A    between atoms: _404  and  _406
REMARK  178  A    between atoms: _406  and  _407
REMARK  179  A    between atoms: _406  and  _409
REMARK  180  A    between atoms: _409  and  _410
REMARK  181  A    between atoms: _410  and  _411
REMARK  182  A    between atoms: _411  and  _412
REMARK  183  A    between atoms: _421  and  _423
REMARK  184  A    between atoms: _423  and  _424
REMARK  185  A    between atoms: _423  and  _426
REMARK  186  A    between atoms: _426  and  _427
REMARK  187  A    between atoms: _430  and  _432
REMARK  188  A    between atoms: _432  and  _433
REMARK  189  A    between atoms: _432  and  _435
REMARK  190  A    between atoms: _435  and  _436
REMARK  191  A    between atoms: _439  and  _441
REMARK  192  A    between atoms: _441  and  _442
REMARK  193  A    between atoms: _441  and  _444
REMARK  194  A    between atoms: _444  and  _445
REMARK  195  A    between atoms: _445  and  _446
REMARK  196  A    between atoms: _446  and  _447
REMARK  197  A    between atoms: _447  and  _448
REMARK  198  A    between atoms: _453  and  _454
REMARK  199  A    between atoms: _459  and  _461
REMARK  200  A    between atoms: _461  and  _462
REMARK  201  A    between atoms: _461  and  _464
REMARK  202  A    between atoms: _464  and  _465
REMARK  203  A    between atoms: _465  and  _466
REMARK  204  A    between atoms: _469  and  _471
REMARK  205  A    between atoms: _471  and  _472
REMARK  206  A    between atoms: _471  and  _474
REMARK  207  A    between atoms: _474  and  _475
REMARK  208  A    between atoms: _480  and  _482
REMARK  209  A    between atoms: _482  and  _483
REMARK  210  A    between atoms: _482  and  _485
REMARK  211  A    between atoms: _485  and  _486
REMARK  212  A    between atoms: _489  and  _491
REMARK  213  A    between atoms: _491  and  _492
REMARK  214  A    between atoms: _491  and  _494
REMARK  215  A    between atoms: _494  and  _495
REMARK  216  A    between atoms: _498  and  _500
REMARK  217  A    between atoms: _500  and  _501
REMARK  218  A    between atoms: _500  and  _503
REMARK  219  A    between atoms: _503  and  _504
REMARK  220  A    between atoms: _507  and  _509
REMARK  221  A    between atoms: _509  and  _510
REMARK  222  A    between atoms: _509  and  _512
REMARK  223  A    between atoms: _512  and  _513
REMARK  224  A    between atoms: _513  and  _514
REMARK  225  A    between atoms: _519  and  _521
REMARK  226  A    between atoms: _521  and  _522
REMARK  227  A    between atoms: _521  and  _524
REMARK  228  A    between atoms: _527  and  _529
REMARK  229  A    between atoms: _529  and  _530
REMARK  230  A    between atoms: _529  and  _532
REMARK  231  A    between atoms: _532  and  _533
REMARK  232  A    between atoms: _536  and  _538
REMARK  233  A    between atoms: _538  and  _539
REMARK  234  A    between atoms: _538  and  _541
REMARK  235  A    between atoms: _541  and  _542
REMARK  236  A    between atoms: _545  and  _547
REMARK  237  A    between atoms: _547  and  _548
REMARK  238  A    between atoms: _547  and  _550
REMARK  239  A    between atoms: _550  and  _551
REMARK  240  A    between atoms: _557  and  _559
REMARK  241  A    between atoms: _559  and  _560
REMARK  242  A    between atoms: _562  and  _564
REMARK  243  A    between atoms: _564  and  _565
REMARK  244  A    between atoms: _564  and  _567
REMARK  245  A    between atoms: _567  and  _568
REMARK  246  A    between atoms: _574  and  _576
REMARK  247  A    between atoms: _576  and  _577
REMARK  248  A    between atoms: _576  and  _579
REMARK  249  A    between atoms: _581  and  _583
REMARK  250  A    between atoms: _583  and  _584
REMARK  251  A    between atoms: _586  and  _588
REMARK  252  A    between atoms: _588  and  _589
REMARK  253  A    between atoms: _588  and  _591
REMARK  254  A    between atoms: _591  and  _592
REMARK  255  A    between atoms: _596  and  _597
REMARK  256  A    between atoms: _602  and  _604
REMARK  257  A    between atoms: _604  and  _605
REMARK  258  A    between atoms: _604  and  _607
REMARK  259  A    between atoms: _607  and  _608
REMARK  260  A    between atoms: _613  and  _614
REMARK  261  A    between atoms: _616  and  _618
REMARK  262  A    between atoms: _618  and  _619
REMARK  263  A    between atoms: _618  and  _621
REMARK  264  A    between atoms: _621  and  _622
REMARK  265  A    between atoms: _625  and  _627
REMARK  266  A    between atoms: _627  and  _628
REMARK  267  A    between atoms: _627  and  _630
REMARK  268  A    between atoms: _630  and  _631
REMARK  269  A    between atoms: _636  and  _638
REMARK  270  A    between atoms: _638  and  _639
REMARK  271  A    between atoms: _638  and  _641
REMARK  272  A    between atoms: _641  and  _642
REMARK  273  A    between atoms: _648  and  _650
REMARK  274  A    between atoms: _650  and  _651
REMARK  275  A    between atoms: _650  and  _653
REMARK  276  A    between atoms: _653  and  _654
REMARK  277  A    between atoms: _657  and  _659
REMARK  278  A    between atoms: _659  and  _660
REMARK  279  A    between atoms: _659  and  _662
REMARK  280  A    between atoms: _662  and  _663
REMARK  281  A    between atoms: _668  and  _669
REMARK  282  A    between atoms: _671  and  _673
REMARK  283  A    between atoms: _673  and  _674
REMARK  284  A    between atoms: _673  and  _676
REMARK  285  A    between atoms: _676  and  _677
REMARK  286  A    between atoms: _677  and  _678
REMARK                            x       y       z     vdW  Elec       q    Type
REMARK                         _______ _______ _______ _____ _____    ______ ____
ROOT
ATOM      1  CA  GLU A   1      38.122  29.564  -3.468  0.00  0.00    +0.134 C 
ENDROOT
BRANCH   1   2
ATOM      2  N   GLU A   1      37.327  30.410  -2.568  0.00  0.00    -0.239 NA
ATOM      3  H   GLU A   1      36.673  29.952  -1.902  0.00  0.00    +0.142 HD
ENDBRANCH   1   2
BRANCH   1   4
ATOM      4  C   GLU A   1      37.215  28.840  -4.453  0.00  0.00    +0.224 C 
ATOM      5  O   GLU A   1      36.018  28.692  -4.220  0.00  0.00    -0.287 OA
ENDBRANCH   1   4
BRANCH   1   6
ATOM      6  CB  GLU A   1      38.915  28.518  -2.685  0.00  0.00    +0.037 C 
BRANCH   6   7
ATOM      7  CG  GLU A   1      39.583  29.006  -1.409  0.00  0.00    +0.116 C 
BRANCH   7   8
ATOM      8  CD  GLU A   1      40.201  27.853  -0.631  0.00  0.00    +0.365 C 
ATOM      9  OE2 GLU A   1      39.740  27.585   0.507  0.00  0.00    -0.246 OA
ATOM     10  OE1 GLU A   1      41.135  27.197  -1.163  0.00  0.00    -0.246 OA
ENDBRANCH   7   8
ENDBRANCH   6   7
ENDBRANCH   1   6
TORSDOF 5
REMARK  Name = ../refined-set-2016/3bwj/3bwj_pocket.pdb
REMARK  286 active torsions:
REMARK  status: ('A' for Active; 'I' for Inactive)
REMARK    1  A    between atoms: _1  and  _3
REMARK    2  A    between atoms: _3  and  _4
REMARK    3  A    between atoms: _3  and  _6
REMARK    4  A    between atoms: _6  and  _7
REMARK    5  A    between atoms: _10  and  _12
REMARK    6  A    between atoms: _12  and  _13
REMARK    7  A    between atoms: _12  and  _15
REMARK    8  A    between atoms: _15  and  _16
REMARK    9  A    between atoms: _19  and  _21
REMARK   10  A    between atoms: _21  and  _22
REMARK   11  A    between atoms: _24  and  _26
REMARK   12  A    between atoms: _26  and  _27
REMARK   13  A    between atoms: _26  and  _29
REMARK   14  A    between atoms: _29  and  _30
REMARK   15  A    between atoms: _33  and  _35
REMARK   16  A    between atoms: _35  and  _36
REMARK   17  A    between atoms: _38  and  _40
REMARK   18  A    between atoms: _40  and  _41
REMARK   19  A    between atoms: _40  and  _43
REMARK   20  A    between atoms: _43  and  _44
REMARK   21  A    between atoms: _46  and  _48
REMARK   22  A    between atoms: _48  and  _49
REMARK   23  A    between atoms: _48  and  _51
REMARK   24  A    between atoms: _51  and  _52
REMARK   25  A    between atoms: _58  and  _60
REMARK   26  A    between atoms: _60  and  _61
REMARK   27  A    between atoms: _63  and  _65
REMARK   28  A    between atoms: _65  and  _66
REMARK   29  A    between atoms: _65  and  _68
REMARK   30  A    between atoms: _68  and  _69
REMARK   31  A    between atoms: _69  and  _70
REMARK   32  A    between atoms: _70  and  _71
REMARK   33  A    between atoms: _80  and  _82
REMARK   34  A    between atoms: _82  and  _83
REMARK   35  A    between atoms: _82  and  _85
REMARK   36  A    between atoms: _88  and  _90
REMARK   37  A    between atoms: _90  and  _91
REMARK   38  A    between atoms: _90  and  _93
REMARK   39  A    between atoms: _93  and  _94
REMARK   40  A    between atoms: _94  and  _95
REMARK   41  A    between atoms: _97  and  _99
REMARK   42  A    between atoms: _99  and  _100
REMARK   43  A    between atoms: _99  and  _102
REMARK   44  A    between atoms: _102  and  _103
REMARK   45  A    between atoms: _106  and  _108
REMARK   46  A    between atoms: _108  and  _109
REMARK   47  A    between atoms: _108  and  _111
REMARK   48  A    between atoms: _111  and  _112
REMARK   49  A    between atoms: _117  and  _118
REMARK   50  A    between atoms: _120  and  _122
REMARK   51  A    between atoms: _122  and  _123
REMARK   52  A    between atoms: _126  and  _128
REMARK   53  A    between atoms: _128  and  _129
REMARK   54  A    between atoms: _128  and  _131
REMARK   55  A    between atoms: _131  and  _132
REMARK   56  A    between atoms: _132  and  _133
REMARK   57  A    between atoms: _135  and  _137
REMARK   58  A    between atoms: _137  and  _138
REMARK   59  A    between atoms: _137  and  _140
REMARK   60  A    between atoms: _140  and  _141
REMARK   61  A    between atoms: _141  and  _142
REMARK   62  A    between atoms: _142  and  _143
REMARK   63  A    between atoms: _143  and  _144
REMARK   64  A    between atoms: _148  and  _150
REMARK   65  A    between atoms: _150  and  _151
REMARK   66  A    between atoms: _150  and  _153
REMARK   67  A    between atoms: _153  and  _154
REMARK   68  A    between atoms: _157  and  _159
REMARK   69  A    between atoms: _159  and  _160
REMARK   70  A    between atoms: _159  and  _162
REMARK   71  A    between atoms: _162  and  _163
REMARK   72  A    between atoms: _166  and  _168
REMARK   73  A    between atoms: _168  and  _169
REMARK   74  A    between atoms: _168  and  _171
REMARK   75  A    between atoms: _171  and  _172
REMARK   76  A    between atoms: _175  and  _177
REMARK   77  A    between atoms: _177  and  _178
REMARK   78  A    between atoms: _177  and  _180
REMARK   79  A    between atoms: _180  and  _181
REMARK   80  A    between atoms: _181  and  _182
REMARK   81  A    between atoms: _182  and  _183
REMARK   82  A    between atoms: _183  and  _184
REMARK   83  A    between atoms: _188  and  _190
REMARK   84  A    between atoms: _190  and  _191
REMARK   85  A    between atoms: _190  and  _193
REMARK   86  A    between atoms: _196  and  _198
REMARK   87  A    between atoms: _198  and  _199
REMARK   88  A    between atoms: _198  and  _201
REMARK   89  A    between atoms: _201  and  _202
REMARK   90  A    between atoms: _205  and  _207
REMARK   91  A    between atoms: _207  and  _208
REMARK   92  A    between atoms: _207  and  _210
REMARK   93  A    between atoms: _210  and  _211
REMARK   94  A    between atoms: _211  and  _212
REMARK   95  A    between atoms: _217  and  _219
REMARK   96  A    between atoms: _219  and  _220
REMARK   97  A    between atoms: _219  and  _222
REMARK   98  A    between atoms: _222  and  _223
REMARK   99  A    between atoms: _226  and  _228
REMARK  100  A    between atoms: _228  and  _229
REMARK  101  A    between atoms: _228  and  _231
REMARK  102  A    between atoms: _231  and  _232
REMARK  103  A    between atoms: _232  and  _233
REMARK  104  A    between atoms: _236  and  _238
REMARK  105  A    between atoms: _238  and  _239
REMARK  106  A    between atoms: _238  and  _241
REMARK  107  A    between atoms: _244  and  _246
REMARK  108  A    between atoms: _246  and  _247
REMARK  109  A    between atoms: _246  and  _249
REMARK  110  A    between atoms: _249  and  _250
REMARK  111  A    between atoms: _250  and  _251
REMARK  112  A    between atoms: _251  and  _252
REMARK  113  A    between atoms: _252  and  _253
REMARK  114  A    between atoms: _257  and  _259
REMARK  115  A    between atoms: _259  and  _260
REMARK  116  A    between atoms: _259  and  _262
REMARK  117  A    between atoms: _262  and  _263
REMARK  118  A    between atoms: _266  and  _268
REMARK  119  A    between atoms: _268  and  _269
REMARK  120  A    between atoms: _268  and  _271
REMARK  121  A    between atoms: _271  and  _272
REMARK  122  A    between atoms: _272  and  _273
REMARK  123  A    between atoms: _276  and  _278
REMARK  124  A    between atoms: _278  and  _279
REMARK  125  A    between atoms: _278  and  _281
REMARK  126  A    between atoms: _281  and  _282
REMARK  127  A    between atoms: _282  and  _283
REMARK  128  A    between atoms: _285  and  _287
REMARK  129  A    between atoms: _287  and  _288
REMARK  130  A    between atoms: _287  and  _290
REMARK  131  A    between atoms: _293  and  _295
REMARK  132  A    between atoms: _295  and  _296
REMARK  133  A    between atoms: _295  and  _298
REMARK  134  A    between atoms: _298  and  _299
REMARK  135  A    between atoms: _299  and  _300
REMARK  136  A    between atoms: _302  and  _304
REMARK  137  A    between atoms: _304  and  _305
REMARK  138  A    between atoms: _304  and  _307
REMARK  139  A    between atoms: _307  and  _308
REMARK  140  A    between atoms: _308  and  _309
REMARK  141  A    between atoms: _312  and  _314
REMARK  142  A    between atoms: _314  and  _315
REMARK  143  A    between atoms: _314  and  _317
REMARK  144  A    between atoms: _317  and  _318
REMARK  145  A    between atoms: _323  and  _324
REMARK  146  A    between atoms: _326  and  _328
REMARK  147  A    between atoms: _328  and  _329
REMARK  148  A    between atoms: _328  and  _331
REMARK  149  A    between atoms: _335  and  _336
REMARK  150  A    between atoms: _341  and  _343
REMARK  151  A    between atoms: _343  and  _344
REMARK  152  A    between atoms: _346  and  _348
REMARK  153  A    between atoms: _348  and  _349
REMARK  154  A    between atoms: _351  and  _353
REMARK  155  A    between atoms: _353  and  _354
REMARK  156  A    between atoms: _353  and  _356
REMARK  157  A    between atoms: _356  and  _357
REMARK  158  A    between atoms: _357  and  _358
REMARK  159  A    between atoms: _361  and  _363
REMARK  160  A    between atoms: _363  and  _364
REMARK  161  A    between atoms: _363  and  _366
REMARK  162  A    between atoms: _366  and  _367
REMARK  163  A    between atoms: _367  and  _368
REMARK  164  A    between atoms: _370  and  _372
REMARK  165  A    between atoms: _372  and  _373
REMARK  166  A    between atoms: _372  and  _375
REMARK  167  A    between atoms: _375  and  _376
REMARK  168  A    between atoms: _382  and  _384
REMARK  169  A    between atoms: _384  and  _385
REMARK  170  A    between atoms: _384  and  _387
REMARK  171  A    between atoms: _387  and  _388
REMARK  172  A    between atoms: _390  and  _392
REMARK  173  A    between atoms: _392  and  _393
REMARK  174  A    between atoms: _392  and  _395
REMARK  175  A    between atoms: _395  and  _396
REMARK  176  A    between atoms: _401  and  _402
REMARK  177  A    between atoms: _404  and  _406
REMARK  178  A    between atoms: _406  and  _407
REMARK  179  A    between atoms: _406  and  _409
REMARK  180  A    between atoms: _409  and  _410
REMARK  181  A    between atoms: _410  and  _411
REMARK  182  A    between atoms: _411  and  _412
REMARK  183  A    between atoms: _421  and  _423
REMARK  184  A    between atoms: _423  and  _424
REMARK  185  A    between atoms: _423  and  _426
REMARK  186  A    between atoms: _426  and  _427
REMARK  187  A    between atoms: _430  and  _432
REMARK  188  A    between atoms: _432  and  _433
REMARK  189  A    between atoms: _432  and  _435
REMARK  190  A    between atoms: _435  and  _436
REMARK  191  A    between atoms: _439  and  _441
REMARK  192  A    between atoms: _441  and  _442
REMARK  193  A    between atoms: _441  and  _444
REMARK  194  A    between atoms: _444  and  _445
REMARK  195  A    between atoms: _445  and  _446
REMARK  196  A    between atoms: _446  and  _447
REMARK  197  A    between atoms: _447  and  _448
REMARK  198  A    between atoms: _453  and  _454
REMARK  199  A    between atoms: _459  and  _461
REMARK  200  A    between atoms: _461  and  _462
REMARK  201  A    between atoms: _461  and  _464
REMARK  202  A    between atoms: _464  and  _465
REMARK  203  A    between atoms: _465  and  _466
REMARK  204  A    between atoms: _469  and  _471
REMARK  205  A    between atoms: _471  and  _472
REMARK  206  A    between atoms: _471  and  _474
REMARK  207  A    between atoms: _474  and  _475
REMARK  208  A    between atoms: _480  and  _482
REMARK  209  A    between atoms: _482  and  _483
REMARK  210  A    between atoms: _482  and  _485
REMARK  211  A    between atoms: _485  and  _486
REMARK  212  A    between atoms: _489  and  _491
REMARK  213  A    between atoms: _491  and  _492
REMARK  214  A    between atoms: _491  and  _494
REMARK  215  A    between atoms: _494  and  _495
REMARK  216  A    between atoms: _498  and  _500
REMARK  217  A    between atoms: _500  and  _501
REMARK  218  A    between atoms: _500  and  _503
REMARK  219  A    between atoms: _503  and  _504
REMARK  220  A    between atoms: _507  and  _509
REMARK  221  A    between atoms: _509  and  _510
REMARK  222  A    between atoms: _509  and  _512
REMARK  223  A    between atoms: _512  and  _513
REMARK  224  A    between atoms: _513  and  _514
REMARK  225  A    between atoms: _519  and  _521
REMARK  226  A    between atoms: _521  and  _522
REMARK  227  A    between atoms: _521  and  _524
REMARK  228  A    between atoms: _527  and  _529
REMARK  229  A    between atoms: _529  and  _530
REMARK  230  A    between atoms: _529  and  _532
REMARK  231  A    between atoms: _532  and  _533
REMARK  232  A    between atoms: _536  and  _538
REMARK  233  A    between atoms: _538  and  _539
REMARK  234  A    between atoms: _538  and  _541
REMARK  235  A    between atoms: _541  and  _542
REMARK  236  A    between atoms: _545  and  _547
REMARK  237  A    between atoms: _547  and  _548
REMARK  238  A    between atoms: _547  and  _550
REMARK  239  A    between atoms: _550  and  _551
REMARK  240  A    between atoms: _557  and  _559
REMARK  241  A    between atoms: _559  and  _560
REMARK  242  A    between atoms: _562  and  _564
REMARK  243  A    between atoms: _564  and  _565
REMARK  244  A    between atoms: _564  and  _567
REMARK  245  A    between atoms: _567  and  _568
REMARK  246  A    between atoms: _574  and  _576
REMARK  247  A    between atoms: _576  and  _577
REMARK  248  A    between atoms: _576  and  _579
REMARK  249  A    between atoms: _581  and  _583
REMARK  250  A    between atoms: _583  and  _584
REMARK  251  A    between atoms: _586  and  _588
REMARK  252  A    between atoms: _588  and  _589
REMARK  253  A    between atoms: _588  and  _591
REMARK  254  A    between atoms: _591  and  _592
REMARK  255  A    between atoms: _596  and  _597
REMARK  256  A    between atoms: _602  and  _604
REMARK  257  A    between atoms: _604  and  _605
REMARK  258  A    between atoms: _604  and  _607
REMARK  259  A    between atoms: _607  and  _608
REMARK  260  A    between atoms: _613  and  _614
REMARK  261  A    between atoms: _616  and  _618
REMARK  262  A    between atoms: _618  and  _619
REMARK  263  A    between atoms: _618  and  _621
REMARK  264  A    between atoms: _621  and  _622
REMARK  265  A    between atoms: _625  and  _627
REMARK  266  A    between atoms: _627  and  _628
REMARK  267  A    between atoms: _627  and  _630
REMARK  268  A    between atoms: _630  and  _631
REMARK  269  A    between atoms: _636  and  _638
REMARK  270  A    between atoms: _638  and  _639
REMARK  271  A    between atoms: _638  and  _641
REMARK  272  A    between atoms: _641  and  _642
REMARK  273  A    between atoms: _648  and  _650
REMARK  274  A    between atoms: _650  and  _651
REMARK  275  A    between atoms: _650  and  _653
REMARK  276  A    between atoms: _653  and  _654
REMARK  277  A    between atoms: _657  and  _659
REMARK  278  A    between atoms: _659  and  _660
REMARK  279  A    between atoms: _659  and  _662
REMARK  280  A    between atoms: _662  and  _663
REMARK  281  A    between atoms: _668  and  _669
REMARK  282  A    between atoms: _671  and  _673
REMARK  283  A    between atoms: _673  and  _674
REMARK  284  A    between atoms: _673  and  _676
REMARK  285  A    between atoms: _676  and  _677
REMARK  286  A    between atoms: _677  and  _678
REMARK                            x       y       z     vdW  Elec       q    Type
REMARK                         _______ _______ _______ _____ _____    ______ ____
ROOT
ATOM      1  O   HOH     1      28.578  20.656   8.739  0.00  0.00    +0.000 OA
ENDROOT
TORSDOF 0
REMARK  Name = ../refined-set-2016/3bwj/3bwj_pocket.pdb
REMARK  286 active torsions:
REMARK  status: ('A' for Active; 'I' for Inactive)
REMARK    1  A    between atoms: _1  and  _3
REMARK    2  A    between atoms: _3  and  _4
REMARK    3  A    between atoms: _3  and  _6
REMARK    4  A    between atoms: _6  and  _7
REMARK    5  A    between atoms: _10  and  _12
REMARK    6  A    between atoms: _12  and  _13
REMARK    7  A    between atoms: _12  and  _15
REMARK    8  A    between atoms: _15  and  _16
REMARK    9  A    between atoms: _19  and  _21
REMARK   10  A    between atoms: _21  and  _22
REMARK   11  A    between atoms: _24  and  _26
REMARK   12  A    between atoms: _26  and  _27
REMARK   13  A    between atoms: _26  and  _29
REMARK   14  A    between atoms: _29  and  _30
REMARK   15  A    between atoms: _33  and  _35
REMARK   16  A    between atoms: _35  and  _36
REMARK   17  A    between atoms: _38  and  _40
REMARK   18  A    between atoms: _40  and  _41
REMARK   19  A    between atoms: _40  and  _43
REMARK   20  A    between atoms: _43  and  _44
REMARK   21  A    between atoms: _46  and  _48
REMARK   22  A    between atoms: _48  and  _49
REMARK   23  A    between atoms: _48  and  _51
REMARK   24  A    between atoms: _51  and  _52
REMARK   25  A    between atoms: _58  and  _60
REMARK   26  A    between atoms: _60  and  _61
REMARK   27  A    between atoms: _63  and  _65
REMARK   28  A    between atoms: _65  and  _66
REMARK   29  A    between atoms: _65  and  _68
REMARK   30  A    between atoms: _68  and  _69
REMARK   31  A    between atoms: _69  and  _70
REMARK   32  A    between atoms: _70  and  _71
REMARK   33  A    between atoms: _80  and  _82
REMARK   34  A    between atoms: _82  and  _83
REMARK   35  A    between atoms: _82  and  _85
REMARK   36  A    between atoms: _88  and  _90
REMARK   37  A    between atoms: _90  and  _91
REMARK   38  A    between atoms: _90  and  _93
REMARK   39  A    between atoms: _93  and  _94
REMARK   40  A    between atoms: _94  and  _95
REMARK   41  A    between atoms: _97  and  _99
REMARK   42  A    between atoms: _99  and  _100
REMARK   43  A    between atoms: _99  and  _102
REMARK   44  A    between atoms: _102  and  _103
REMARK   45  A    between atoms: _106  and  _108
REMARK   46  A    between atoms: _108  and  _109
REMARK   47  A    between atoms: _108  and  _111
REMARK   48  A    between atoms: _111  and  _112
REMARK   49  A    between atoms: _117  and  _118
REMARK   50  A    between atoms: _120  and  _122
REMARK   51  A    between atoms: _122  and  _123
REMARK   52  A    between atoms: _126  and  _128
REMARK   53  A    between atoms: _128  and  _129
REMARK   54  A    between atoms: _128  and  _131
REMARK   55  A    between atoms: _131  and  _132
REMARK   56  A    between atoms: _132  and  _133
REMARK   57  A    between atoms: _135  and  _137
REMARK   58  A    between atoms: _137  and  _138
REMARK   59  A    between atoms: _137  and  _140
REMARK   60  A    between atoms: _140  and  _141
REMARK   61  A    between atoms: _141  and  _142
REMARK   62  A    between atoms: _142  and  _143
REMARK   63  A    between atoms: _143  and  _144
REMARK   64  A    between atoms: _148  and  _150
REMARK   65  A    between atoms: _150  and  _151
REMARK   66  A    between atoms: _150  and  _153
REMARK   67  A    between atoms: _153  and  _154
REMARK   68  A    between atoms: _157  and  _159
REMARK   69  A    between atoms: _159  and  _160
REMARK   70  A    between atoms: _159  and  _162
REMARK   71  A    between atoms: _162  and  _163
REMARK   72  A    between atoms: _166  and  _168
REMARK   73  A    between atoms: _168  and  _169
REMARK   74  A    between atoms: _168  and  _171
REMARK   75  A    between atoms: _171  and  _172
REMARK   76  A    between atoms: _175  and  _177
REMARK   77  A    between atoms: _177  and  _178
REMARK   78  A    between atoms: _177  and  _180
REMARK   79  A    between atoms: _180  and  _181
REMARK   80  A    between atoms: _181  and  _182
REMARK   81  A    between atoms: _182  and  _183
REMARK   82  A    between atoms: _183  and  _184
REMARK   83  A    between atoms: _188  and  _190
REMARK   84  A    between atoms: _190  and  _191
REMARK   85  A    between atoms: _190  and  _193
REMARK   86  A    between atoms: _196  and  _198
REMARK   87  A    between atoms: _198  and  _199
REMARK   88  A    between atoms: _198  and  _201
REMARK   89  A    between atoms: _201  and  _202
REMARK   90  A    between atoms: _205  and  _207
REMARK   91  A    between atoms: _207  and  _208
REMARK   92  A    between atoms: _207  and  _210
REMARK   93  A    between atoms: _210  and  _211
REMARK   94  A    between atoms: _211  and  _212
REMARK   95  A    between atoms: _217  and  _219
REMARK   96  A    between atoms: _219  and  _220
REMARK   97  A    between atoms: _219  and  _222
REMARK   98  A    between atoms: _222  and  _223
REMARK   99  A    between atoms: _226  and  _228
REMARK  100  A    between atoms: _228  and  _229
REMARK  101  A    between atoms: _228  and  _231
REMARK  102  A    between atoms: _231  and  _232
REMARK  103  A    between atoms: _232  and  _233
REMARK  104  A    between atoms: _236  and  _238
REMARK  105  A    between atoms: _238  and  _239
REMARK  106  A    between atoms: _238  and  _241
REMARK  107  A    between atoms: _244  and  _246
REMARK  108  A    between atoms: _246  and  _247
REMARK  109  A    between atoms: _246  and  _249
REMARK  110  A    between atoms: _249  and  _250
REMARK  111  A    between atoms: _250  and  _251
REMARK  112  A    between atoms: _251  and  _252
REMARK  113  A    between atoms: _252  and  _253
REMARK  114  A    between atoms: _257  and  _259
REMARK  115  A    between atoms: _259  and  _260
REMARK  116  A    between atoms: _259  and  _262
REMARK  117  A    between atoms: _262  and  _263
REMARK  118  A    between atoms: _266  and  _268
REMARK  119  A    between atoms: _268  and  _269
REMARK  120  A    between atoms: _268  and  _271
REMARK  121  A    between atoms: _271  and  _272
REMARK  122  A    between atoms: _272  and  _273
REMARK  123  A    between atoms: _276  and  _278
REMARK  124  A    between atoms: _278  and  _279
REMARK  125  A    between atoms: _278  and  _281
REMARK  126  A    between atoms: _281  and  _282
REMARK  127  A    between atoms: _282  and  _283
REMARK  128  A    between atoms: _285  and  _287
REMARK  129  A    between atoms: _287  and  _288
REMARK  130  A    between atoms: _287  and  _290
REMARK  131  A    between atoms: _293  and  _295
REMARK  132  A    between atoms: _295  and  _296
REMARK  133  A    between atoms: _295  and  _298
REMARK  134  A    between atoms: _298  and  _299
REMARK  135  A    between atoms: _299  and  _300
REMARK  136  A    between atoms: _302  and  _304
REMARK  137  A    between atoms: _304  and  _305
REMARK  138  A    between atoms: _304  and  _307
REMARK  139  A    between atoms: _307  and  _308
REMARK  140  A    between atoms: _308  and  _309
REMARK  141  A    between atoms: _312  and  _314
REMARK  142  A    between atoms: _314  and  _315
REMARK  143  A    between atoms: _314  and  _317
REMARK  144  A    between atoms: _317  and  _318
REMARK  145  A    between atoms: _323  and  _324
REMARK  146  A    between atoms: _326  and  _328
REMARK  147  A    between atoms: _328  and  _329
REMARK  148  A    between atoms: _328  and  _331
REMARK  149  A    between atoms: _335  and  _336
REMARK  150  A    between atoms: _341  and  _343
REMARK  151  A    between atoms: _343  and  _344
REMARK  152  A    between atoms: _346  and  _348
REMARK  153  A    between atoms: _348  and  _349
REMARK  154  A    between atoms: _351  and  _353
REMARK  155  A    between atoms: _353  and  _354
REMARK  156  A    between atoms: _353  and  _356
REMARK  157  A    between atoms: _356  and  _357
REMARK  158  A    between atoms: _357  and  _358
REMARK  159  A    between atoms: _361  and  _363
REMARK  160  A    between atoms: _363  and  _364
REMARK  161  A    between atoms: _363  and  _366
REMARK  162  A    between atoms: _366  and  _367
REMARK  163  A    between atoms: _367  and  _368
REMARK  164  A    between atoms: _370  and  _372
REMARK  165  A    between atoms: _372  and  _373
REMARK  166  A    between atoms: _372  and  _375
REMARK  167  A    between atoms: _375  and  _376
REMARK  168  A    between atoms: _382  and  _384
REMARK  169  A    between atoms: _384  and  _385
REMARK  170  A    between atoms: _384  and  _387
REMARK  171  A    between atoms: _387  and  _388
REMARK  172  A    between atoms: _390  and  _392
REMARK  173  A    between atoms: _392  and  _393
REMARK  174  A    between atoms: _392  and  _395
REMARK  175  A    between atoms: _395  and  _396
REMARK  176  A    between atoms: _401  and  _402
REMARK  177  A    between atoms: _404  and  _406
REMARK  178  A    between atoms: _406  and  _407
REMARK  179  A    between atoms: _406  and  _409
REMARK  180  A    between atoms: _409  and  _410
REMARK  181  A    between atoms: _410  and  _411
REMARK  182  A    between atoms: _411  and  _412
REMARK  183  A    between atoms: _421  and  _423
REMARK  184  A    between atoms: _423  and  _424
REMARK  185  A    between atoms: _423  and  _426
REMARK  186  A    between atoms: _426  and  _427
REMARK  187  A    between atoms: _430  and  _432
REMARK  188  A    between atoms: _432  and  _433
REMARK  189  A    between atoms: _432  and  _435
REMARK  190  A    between atoms: _435  and  _436
REMARK  191  A    between atoms: _439  and  _441
REMARK  192  A    between atoms: _441  and  _442
REMARK  193  A    between atoms: _441  and  _444
REMARK  194  A    between atoms: _444  and  _445
REMARK  195  A    between atoms: _445  and  _446
REMARK  196  A    between atoms: _446  and  _447
REMARK  197  A    between atoms: _447  and  _448
REMARK  198  A    between atoms: _453  and  _454
REMARK  199  A    between atoms: _459  and  _461
REMARK  200  A    between atoms: _461  and  _462
REMARK  201  A    between atoms: _461  and  _464
REMARK  202  A    between atoms: _464  and  _465
REMARK  203  A    between atoms: _465  and  _466
REMARK  204  A    between atoms: _469  and  _471
REMARK  205  A    between atoms: _471  and  _472
REMARK  206  A    between atoms: _471  and  _474
REMARK  207  A    between atoms: _474  and  _475
REMARK  208  A    between atoms: _480  and  _482
REMARK  209  A    between atoms: _482  and  _483
REMARK  210  A    between atoms: _482  and  _485
REMARK  211  A    between atoms: _485  and  _486
REMARK  212  A    between atoms: _489  and  _491
REMARK  213  A    between atoms: _491  and  _492
REMARK  214  A    between atoms: _491  and  _494
REMARK  215  A    between atoms: _494  and  _495
REMARK  216  A    between atoms: _498  and  _500
REMARK  217  A    between atoms: _500  and  _501
REMARK  218  A    between atoms: _500  and  _503
REMARK  219  A    between atoms: _503  and  _504
REMARK  220  A    between atoms: _507  and  _509
REMARK  221  A    between atoms: _509  and  _510
REMARK  222  A    between atoms: _509  and  _512
REMARK  223  A    between atoms: _512  and  _513
REMARK  224  A    between atoms: _513  and  _514
REMARK  225  A    between atoms: _519  and  _521
REMARK  226  A    between atoms: _521  and  _522
REMARK  227  A    between atoms: _521  and  _524
REMARK  228  A    between atoms: _527  and  _529
REMARK  229  A    between atoms: _529  and  _530
REMARK  230  A    between atoms: _529  and  _532
REMARK  231  A    between atoms: _532  and  _533
REMARK  232  A    between atoms: _536  and  _538
REMARK  233  A    between atoms: _538  and  _539
REMARK  234  A    between atoms: _538  and  _541
REMARK  235  A    between atoms: _541  and  _542
REMARK  236  A    between atoms: _545  and  _547
REMARK  237  A    between atoms: _547  and  _548
REMARK  238  A    between atoms: _547  and  _550
REMARK  239  A    between atoms: _550  and  _551
REMARK  240  A    between atoms: _557  and  _559
REMARK  241  A    between atoms: _559  and  _560
REMARK  242  A    between atoms: _562  and  _564
REMARK  243  A    between atoms: _564  and  _565
REMARK  244  A    between atoms: _564  and  _567
REMARK  245  A    between atoms: _567  and  _568
REMARK  246  A    between atoms: _574  and  _576
REMARK  247  A    between atoms: _576  and  _577
REMARK  248  A    between atoms: _576  and  _579
REMARK  249  A    between atoms: _581  and  _583
REMARK  250  A    between atoms: _583  and  _584
REMARK  251  A    between atoms: _586  and  _588
REMARK  252  A    between atoms: _588  and  _589
REMARK  253  A    between atoms: _588  and  _591
REMARK  254  A    between atoms: _591  and  _592
REMARK  255  A    between atoms: _596  and  _597
REMARK  256  A    between atoms: _602  and  _604
REMARK  257  A    between atoms: _604  and  _605
REMARK  258  A    between atoms: _604  and  _607
REMARK  259  A    between atoms: _607  and  _608
REMARK  260  A    between atoms: _613  and  _614
REMARK  261  A    between atoms: _616  and  _618
REMARK  262  A    between atoms: _618  and  _619
REMARK  263  A    between atoms: _618  and  _621
REMARK  264  A    between atoms: _621  and  _622
REMARK  265  A    between atoms: _625  and  _627
REMARK  266  A    between atoms: _627  and  _628
REMARK  267  A    between atoms: _627  and  _630
REMARK  268  A    between atoms: _630  and  _631
REMARK  269  A    between atoms: _636  and  _638
REMARK  270  A    between atoms: _638  and  _639
REMARK  271  A    between atoms: _638  and  _641
REMARK  272  A    between atoms: _641  and  _642
REMARK  273  A    between atoms: _648  and  _650
REMARK  274  A    between atoms: _650  and  _651
REMARK  275  A    between atoms: _650  and  _653
REMARK  276  A    between atoms: _653  and  _654
REMARK  277  A    between atoms: _657  and  _659
REMARK  278  A    between atoms: _659  and  _660
REMARK  279  A    between atoms: _659  and  _662
REMARK  280  A    between atoms: _662  and  _663
REMARK  281  A    between atoms: _668  and  _669
REMARK  282  A    between atoms: _671  and  _673
REMARK  283  A    between atoms: _673  and  _674
REMARK  284  A    between atoms: _673  and  _676
REMARK  285  A    between atoms: _676  and  _677
REMARK  286  A    between atoms: _677  and  _678
REMARK                            x       y       z     vdW  Elec       q    Type
REMARK                         _______ _______ _______ _____ _____    ______ ____
ROOT
ATOM      1  O   HOH     1      29.424  14.832  14.915  0.00  0.00    +0.000 OA
ENDROOT
TORSDOF 0
REMARK  Name = ../refined-set-2016/3bwj/3bwj_pocket.pdb
REMARK  286 active torsions:
REMARK  status: ('A' for Active; 'I' for Inactive)
REMARK    1  A    between atoms: _1  and  _3
REMARK    2  A    between atoms: _3  and  _4
REMARK    3  A    between atoms: _3  and  _6
REMARK    4  A    between atoms: _6  and  _7
REMARK    5  A    between atoms: _10  and  _12
REMARK    6  A    between atoms: _12  and  _13
REMARK    7  A    between atoms: _12  and  _15
REMARK    8  A    between atoms: _15  and  _16
REMARK    9  A    between atoms: _19  and  _21
REMARK   10  A    between atoms: _21  and  _22
REMARK   11  A    between atoms: _24  and  _26
REMARK   12  A    between atoms: _26  and  _27
REMARK   13  A    between atoms: _26  and  _29
REMARK   14  A    between atoms: _29  and  _30
REMARK   15  A    between atoms: _33  and  _35
REMARK   16  A    between atoms: _35  and  _36
REMARK   17  A    between atoms: _38  and  _40
REMARK   18  A    between atoms: _40  and  _41
REMARK   19  A    between atoms: _40  and  _43
REMARK   20  A    between atoms: _43  and  _44
REMARK   21  A    between atoms: _46  and  _48
REMARK   22  A    between atoms: _48  and  _49
REMARK   23  A    between atoms: _48  and  _51
REMARK   24  A    between atoms: _51  and  _52
REMARK   25  A    between atoms: _58  and  _60
REMARK   26  A    between atoms: _60  and  _61
REMARK   27  A    between atoms: _63  and  _65
REMARK   28  A    between atoms: _65  and  _66
REMARK   29  A    between atoms: _65  and  _68
REMARK   30  A    between atoms: _68  and  _69
REMARK   31  A    between atoms: _69  and  _70
REMARK   32  A    between atoms: _70  and  _71
REMARK   33  A    between atoms: _80  and  _82
REMARK   34  A    between atoms: _82  and  _83
REMARK   35  A    between atoms: _82  and  _85
REMARK   36  A    between atoms: _88  and  _90
REMARK   37  A    between atoms: _90  and  _91
REMARK   38  A    between atoms: _90  and  _93
REMARK   39  A    between atoms: _93  and  _94
REMARK   40  A    between atoms: _94  and  _95
REMARK   41  A    between atoms: _97  and  _99
REMARK   42  A    between atoms: _99  and  _100
REMARK   43  A    between atoms: _99  and  _102
REMARK   44  A    between atoms: _102  and  _103
REMARK   45  A    between atoms: _106  and  _108
REMARK   46  A    between atoms: _108  and  _109
REMARK   47  A    between atoms: _108  and  _111
REMARK   48  A    between atoms: _111  and  _112
REMARK   49  A    between atoms: _117  and  _118
REMARK   50  A    between atoms: _120  and  _122
REMARK   51  A    between atoms: _122  and  _123
REMARK   52  A    between atoms: _126  and  _128
REMARK   53  A    between atoms: _128  and  _129
REMARK   54  A    between atoms: _128  and  _131
REMARK   55  A    between atoms: _131  and  _132
REMARK   56  A    between atoms: _132  and  _133
REMARK   57  A    between atoms: _135  and  _137
REMARK   58  A    between atoms: _137  and  _138
REMARK   59  A    between atoms: _137  and  _140
REMARK   60  A    between atoms: _140  and  _141
REMARK   61  A    between atoms: _141  and  _142
REMARK   62  A    between atoms: _142  and  _143
REMARK   63  A    between atoms: _143  and  _144
REMARK   64  A    between atoms: _148  and  _150
REMARK   65  A    between atoms: _150  and  _151
REMARK   66  A    between atoms: _150  and  _153
REMARK   67  A    between atoms: _153  and  _154
REMARK   68  A    between atoms: _157  and  _159
REMARK   69  A    between atoms: _159  and  _160
REMARK   70  A    between atoms: _159  and  _162
REMARK   71  A    between atoms: _162  and  _163
REMARK   72  A    between atoms: _166  and  _168
REMARK   73  A    between atoms: _168  and  _169
REMARK   74  A    between atoms: _168  and  _171
REMARK   75  A    between atoms: _171  and  _172
REMARK   76  A    between atoms: _175  and  _177
REMARK   77  A    between atoms: _177  and  _178
REMARK   78  A    between atoms: _177  and  _180
REMARK   79  A    between atoms: _180  and  _181
REMARK   80  A    between atoms: _181  and  _182
REMARK   81  A    between atoms: _182  and  _183
REMARK   82  A    between atoms: _183  and  _184
REMARK   83  A    between atoms: _188  and  _190
REMARK   84  A    between atoms: _190  and  _191
REMARK   85  A    between atoms: _190  and  _193
REMARK   86  A    between atoms: _196  and  _198
REMARK   87  A    between atoms: _198  and  _199
REMARK   88  A    between atoms: _198  and  _201
REMARK   89  A    between atoms: _201  and  _202
REMARK   90  A    between atoms: _205  and  _207
REMARK   91  A    between atoms: _207  and  _208
REMARK   92  A    between atoms: _207  and  _210
REMARK   93  A    between atoms: _210  and  _211
REMARK   94  A    between atoms: _211  and  _212
REMARK   95  A    between atoms: _217  and  _219
REMARK   96  A    between atoms: _219  and  _220
REMARK   97  A    between atoms: _219  and  _222
REMARK   98  A    between atoms: _222  and  _223
REMARK   99  A    between atoms: _226  and  _228
REMARK  100  A    between atoms: _228  and  _229
REMARK  101  A    between atoms: _228  and  _231
REMARK  102  A    between atoms: _231  and  _232
REMARK  103  A    between atoms: _232  and  _233
REMARK  104  A    between atoms: _236  and  _238
REMARK  105  A    between atoms: _238  and  _239
REMARK  106  A    between atoms: _238  and  _241
REMARK  107  A    between atoms: _244  and  _246
REMARK  108  A    between atoms: _246  and  _247
REMARK  109  A    between atoms: _246  and  _249
REMARK  110  A    between atoms: _249  and  _250
REMARK  111  A    between atoms: _250  and  _251
REMARK  112  A    between atoms: _251  and  _252
REMARK  113  A    between atoms: _252  and  _253
REMARK  114  A    between atoms: _257  and  _259
REMARK  115  A    between atoms: _259  and  _260
REMARK  116  A    between atoms: _259  and  _262
REMARK  117  A    between atoms: _262  and  _263
REMARK  118  A    between atoms: _266  and  _268
REMARK  119  A    between atoms: _268  and  _269
REMARK  120  A    between atoms: _268  and  _271
REMARK  121  A    between atoms: _271  and  _272
REMARK  122  A    between atoms: _272  and  _273
REMARK  123  A    between atoms: _276  and  _278
REMARK  124  A    between atoms: _278  and  _279
REMARK  125  A    between atoms: _278  and  _281
REMARK  126  A    between atoms: _281  and  _282
REMARK  127  A    between atoms: _282  and  _283
REMARK  128  A    between atoms: _285  and  _287
REMARK  129  A    between atoms: _287  and  _288
REMARK  130  A    between atoms: _287  and  _290
REMARK  131  A    between atoms: _293  and  _295
REMARK  132  A    between atoms: _295  and  _296
REMARK  133  A    between atoms: _295  and  _298
REMARK  134  A    between atoms: _298  and  _299
REMARK  135  A    between atoms: _299  and  _300
REMARK  136  A    between atoms: _302  and  _304
REMARK  137  A    between atoms: _304  and  _305
REMARK  138  A    between atoms: _304  and  _307
REMARK  139  A    between atoms: _307  and  _308
REMARK  140  A    between atoms: _308  and  _309
REMARK  141  A    between atoms: _312  and  _314
REMARK  142  A    between atoms: _314  and  _315
REMARK  143  A    between atoms: _314  and  _317
REMARK  144  A    between atoms: _317  and  _318
REMARK  145  A    between atoms: _323  and  _324
REMARK  146  A    between atoms: _326  and  _328
REMARK  147  A    between atoms: _328  and  _329
REMARK  148  A    between atoms: _328  and  _331
REMARK  149  A    between atoms: _335  and  _336
REMARK  150  A    between atoms: _341  and  _343
REMARK  151  A    between atoms: _343  and  _344
REMARK  152  A    between atoms: _346  and  _348
REMARK  153  A    between atoms: _348  and  _349
REMARK  154  A    between atoms: _351  and  _353
REMARK  155  A    between atoms: _353  and  _354
REMARK  156  A    between atoms: _353  and  _356
REMARK  157  A    between atoms: _356  and  _357
REMARK  158  A    between atoms: _357  and  _358
REMARK  159  A    between atoms: _361  and  _363
REMARK  160  A    between atoms: _363  and  _364
REMARK  161  A    between atoms: _363  and  _366
REMARK  162  A    between atoms: _366  and  _367
REMARK  163  A    between atoms: _367  and  _368
REMARK  164  A    between atoms: _370  and  _372
REMARK  165  A    between atoms: _372  and  _373
REMARK  166  A    between atoms: _372  and  _375
REMARK  167  A    between atoms: _375  and  _376
REMARK  168  A    between atoms: _382  and  _384
REMARK  169  A    between atoms: _384  and  _385
REMARK  170  A    between atoms: _384  and  _387
REMARK  171  A    between atoms: _387  and  _388
REMARK  172  A    between atoms: _390  and  _392
REMARK  173  A    between atoms: _392  and  _393
REMARK  174  A    between atoms: _392  and  _395
REMARK  175  A    between atoms: _395  and  _396
REMARK  176  A    between atoms: _401  and  _402
REMARK  177  A    between atoms: _404  and  _406
REMARK  178  A    between atoms: _406  and  _407
REMARK  179  A    between atoms: _406  and  _409
REMARK  180  A    between atoms: _409  and  _410
REMARK  181  A    between atoms: _410  and  _411
REMARK  182  A    between atoms: _411  and  _412
REMARK  183  A    between atoms: _421  and  _423
REMARK  184  A    between atoms: _423  and  _424
REMARK  185  A    between atoms: _423  and  _426
REMARK  186  A    between atoms: _426  and  _427
REMARK  187  A    between atoms: _430  and  _432
REMARK  188  A    between atoms: _432  and  _433
REMARK  189  A    between atoms: _432  and  _435
REMARK  190  A    between atoms: _435  and  _436
REMARK  191  A    between atoms: _439  and  _441
REMARK  192  A    between atoms: _441  and  _442
REMARK  193  A    between atoms: _441  and  _444
REMARK  194  A    between atoms: _444  and  _445
REMARK  195  A    between atoms: _445  and  _446
REMARK  196  A    between atoms: _446  and  _447
REMARK  197  A    between atoms: _447  and  _448
REMARK  198  A    between atoms: _453  and  _454
REMARK  199  A    between atoms: _459  and  _461
REMARK  200  A    between atoms: _461  and  _462
REMARK  201  A    between atoms: _461  and  _464
REMARK  202  A    between atoms: _464  and  _465
REMARK  203  A    between atoms: _465  and  _466
REMARK  204  A    between atoms: _469  and  _471
REMARK  205  A    between atoms: _471  and  _472
REMARK  206  A    between atoms: _471  and  _474
REMARK  207  A    between atoms: _474  and  _475
REMARK  208  A    between atoms: _480  and  _482
REMARK  209  A    between atoms: _482  and  _483
REMARK  210  A    between atoms: _482  and  _485
REMARK  211  A    between atoms: _485  and  _486
REMARK  212  A    between atoms: _489  and  _491
REMARK  213  A    between atoms: _491  and  _492
REMARK  214  A    between atoms: _491  and  _494
REMARK  215  A    between atoms: _494  and  _495
REMARK  216  A    between atoms: _498  and  _500
REMARK  217  A    between atoms: _500  and  _501
REMARK  218  A    between atoms: _500  and  _503
REMARK  219  A    between atoms: _503  and  _504
REMARK  220  A    between atoms: _507  and  _509
REMARK  221  A    between atoms: _509  and  _510
REMARK  222  A    between atoms: _509  and  _512
REMARK  223  A    between atoms: _512  and  _513
REMARK  224  A    between atoms: _513  and  _514
REMARK  225  A    between atoms: _519  and  _521
REMARK  226  A    between atoms: _521  and  _522
REMARK  227  A    between atoms: _521  and  _524
REMARK  228  A    between atoms: _527  and  _529
REMARK  229  A    between atoms: _529  and  _530
REMARK  230  A    between atoms: _529  and  _532
REMARK  231  A    between atoms: _532  and  _533
REMARK  232  A    between atoms: _536  and  _538
REMARK  233  A    between atoms: _538  and  _539
REMARK  234  A    between atoms: _538  and  _541
REMARK  235  A    between atoms: _541  and  _542
REMARK  236  A    between atoms: _545  and  _547
REMARK  237  A    between atoms: _547  and  _548
REMARK  238  A    between atoms: _547  and  _550
REMARK  239  A    between atoms: _550  and  _551
REMARK  240  A    between atoms: _557  and  _559
REMARK  241  A    between atoms: _559  and  _560
REMARK  242  A    between atoms: _562  and  _564
REMARK  243  A    between atoms: _564  and  _565
REMARK  244  A    between atoms: _564  and  _567
REMARK  245  A    between atoms: _567  and  _568
REMARK  246  A    between atoms: _574  and  _576
REMARK  247  A    between atoms: _576  and  _577
REMARK  248  A    between atoms: _576  and  _579
REMARK  249  A    between atoms: _581  and  _583
REMARK  250  A    between atoms: _583  and  _584
REMARK  251  A    between atoms: _586  and  _588
REMARK  252  A    between atoms: _588  and  _589
REMARK  253  A    between atoms: _588  and  _591
REMARK  254  A    between atoms: _591  and  _592
REMARK  255  A    between atoms: _596  and  _597
REMARK  256  A    between atoms: _602  and  _604
REMARK  257  A    between atoms: _604  and  _605
REMARK  258  A    between atoms: _604  and  _607
REMARK  259  A    between atoms: _607  and  _608
REMARK  260  A    between atoms: _613  and  _614
REMARK  261  A    between atoms: _616  and  _618
REMARK  262  A    between atoms: _618  and  _619
REMARK  263  A    between atoms: _618  and  _621
REMARK  264  A    between atoms: _621  and  _622
REMARK  265  A    between atoms: _625  and  _627
REMARK  266  A    between atoms: _627  and  _628
REMARK  267  A    between atoms: _627  and  _630
REMARK  268  A    between atoms: _630  and  _631
REMARK  269  A    between atoms: _636  and  _638
REMARK  270  A    between atoms: _638  and  _639
REMARK  271  A    between atoms: _638  and  _641
REMARK  272  A    between atoms: _641  and  _642
REMARK  273  A    between atoms: _648  and  _650
REMARK  274  A    between atoms: _650  and  _651
REMARK  275  A    between atoms: _650  and  _653
REMARK  276  A    between atoms: _653  and  _654
REMARK  277  A    between atoms: _657  and  _659
REMARK  278  A    between atoms: _659  and  _660
REMARK  279  A    between atoms: _659  and  _662
REMARK  280  A    between atoms: _662  and  _663
REMARK  281  A    between atoms: _668  and  _669
REMARK  282  A    between atoms: _671  and  _673
REMARK  283  A    between atoms: _673  and  _674
REMARK  284  A    between atoms: _673  and  _676
REMARK  285  A    between atoms: _676  and  _677
REMARK  286  A    between atoms: _677  and  _678
REMARK                            x       y       z     vdW  Elec       q    Type
REMARK                         _______ _______ _______ _____ _____    ______ ____
ROOT
ATOM      1  O   HOH     1      26.082  18.379   8.682  0.00  0.00    +0.000 OA
ENDROOT
TORSDOF 0
REMARK  Name = ../refined-set-2016/3bwj/3bwj_pocket.pdb
REMARK  286 active torsions:
REMARK  status: ('A' for Active; 'I' for Inactive)
REMARK    1  A    between atoms: _1  and  _3
REMARK    2  A    between atoms: _3  and  _4
REMARK    3  A    between atoms: _3  and  _6
REMARK    4  A    between atoms: _6  and  _7
REMARK    5  A    between atoms: _10  and  _12
REMARK    6  A    between atoms: _12  and  _13
REMARK    7  A    between atoms: _12  and  _15
REMARK    8  A    between atoms: _15  and  _16
REMARK    9  A    between atoms: _19  and  _21
REMARK   10  A    between atoms: _21  and  _22
REMARK   11  A    between atoms: _24  and  _26
REMARK   12  A    between atoms: _26  and  _27
REMARK   13  A    between atoms: _26  and  _29
REMARK   14  A    between atoms: _29  and  _30
REMARK   15  A    between atoms: _33  and  _35
REMARK   16  A    between atoms: _35  and  _36
REMARK   17  A    between atoms: _38  and  _40
REMARK   18  A    between atoms: _40  and  _41
REMARK   19  A    between atoms: _40  and  _43
REMARK   20  A    between atoms: _43  and  _44
REMARK   21  A    between atoms: _46  and  _48
REMARK   22  A    between atoms: _48  and  _49
REMARK   23  A    between atoms: _48  and  _51
REMARK   24  A    between atoms: _51  and  _52
REMARK   25  A    between atoms: _58  and  _60
REMARK   26  A    between atoms: _60  and  _61
REMARK   27  A    between atoms: _63  and  _65
REMARK   28  A    between atoms: _65  and  _66
REMARK   29  A    between atoms: _65  and  _68
REMARK   30  A    between atoms: _68  and  _69
REMARK   31  A    between atoms: _69  and  _70
REMARK   32  A    between atoms: _70  and  _71
REMARK   33  A    between atoms: _80  and  _82
REMARK   34  A    between atoms: _82  and  _83
REMARK   35  A    between atoms: _82  and  _85
REMARK   36  A    between atoms: _88  and  _90
REMARK   37  A    between atoms: _90  and  _91
REMARK   38  A    between atoms: _90  and  _93
REMARK   39  A    between atoms: _93  and  _94
REMARK   40  A    between atoms: _94  and  _95
REMARK   41  A    between atoms: _97  and  _99
REMARK   42  A    between atoms: _99  and  _100
REMARK   43  A    between atoms: _99  and  _102
REMARK   44  A    between atoms: _102  and  _103
REMARK   45  A    between atoms: _106  and  _108
REMARK   46  A    between atoms: _108  and  _109
REMARK   47  A    between atoms: _108  and  _111
REMARK   48  A    between atoms: _111  and  _112
REMARK   49  A    between atoms: _117  and  _118
REMARK   50  A    between atoms: _120  and  _122
REMARK   51  A    between atoms: _122  and  _123
REMARK   52  A    between atoms: _126  and  _128
REMARK   53  A    between atoms: _128  and  _129
REMARK   54  A    between atoms: _128  and  _131
REMARK   55  A    between atoms: _131  and  _132
REMARK   56  A    between atoms: _132  and  _133
REMARK   57  A    between atoms: _135  and  _137
REMARK   58  A    between atoms: _137  and  _138
REMARK   59  A    between atoms: _137  and  _140
REMARK   60  A    between atoms: _140  and  _141
REMARK   61  A    between atoms: _141  and  _142
REMARK   62  A    between atoms: _142  and  _143
REMARK   63  A    between atoms: _143  and  _144
REMARK   64  A    between atoms: _148  and  _150
REMARK   65  A    between atoms: _150  and  _151
REMARK   66  A    between atoms: _150  and  _153
REMARK   67  A    between atoms: _153  and  _154
REMARK   68  A    between atoms: _157  and  _159
REMARK   69  A    between atoms: _159  and  _160
REMARK   70  A    between atoms: _159  and  _162
REMARK   71  A    between atoms: _162  and  _163
REMARK   72  A    between atoms: _166  and  _168
REMARK   73  A    between atoms: _168  and  _169
REMARK   74  A    between atoms: _168  and  _171
REMARK   75  A    between atoms: _171  and  _172
REMARK   76  A    between atoms: _175  and  _177
REMARK   77  A    between atoms: _177  and  _178
REMARK   78  A    between atoms: _177  and  _180
REMARK   79  A    between atoms: _180  and  _181
REMARK   80  A    between atoms: _181  and  _182
REMARK   81  A    between atoms: _182  and  _183
REMARK   82  A    between atoms: _183  and  _184
REMARK   83  A    between atoms: _188  and  _190
REMARK   84  A    between atoms: _190  and  _191
REMARK   85  A    between atoms: _190  and  _193
REMARK   86  A    between atoms: _196  and  _198
REMARK   87  A    between atoms: _198  and  _199
REMARK   88  A    between atoms: _198  and  _201
REMARK   89  A    between atoms: _201  and  _202
REMARK   90  A    between atoms: _205  and  _207
REMARK   91  A    between atoms: _207  and  _208
REMARK   92  A    between atoms: _207  and  _210
REMARK   93  A    between atoms: _210  and  _211
REMARK   94  A    between atoms: _211  and  _212
REMARK   95  A    between atoms: _217  and  _219
REMARK   96  A    between atoms: _219  and  _220
REMARK   97  A    between atoms: _219  and  _222
REMARK   98  A    between atoms: _222  and  _223
REMARK   99  A    between atoms: _226  and  _228
REMARK  100  A    between atoms: _228  and  _229
REMARK  101  A    between atoms: _228  and  _231
REMARK  102  A    between atoms: _231  and  _232
REMARK  103  A    between atoms: _232  and  _233
REMARK  104  A    between atoms: _236  and  _238
REMARK  105  A    between atoms: _238  and  _239
REMARK  106  A    between atoms: _238  and  _241
REMARK  107  A    between atoms: _244  and  _246
REMARK  108  A    between atoms: _246  and  _247
REMARK  109  A    between atoms: _246  and  _249
REMARK  110  A    between atoms: _249  and  _250
REMARK  111  A    between atoms: _250  and  _251
REMARK  112  A    between atoms: _251  and  _252
REMARK  113  A    between atoms: _252  and  _253
REMARK  114  A    between atoms: _257  and  _259
REMARK  115  A    between atoms: _259  and  _260
REMARK  116  A    between atoms: _259  and  _262
REMARK  117  A    between atoms: _262  and  _263
REMARK  118  A    between atoms: _266  and  _268
REMARK  119  A    between atoms: _268  and  _269
REMARK  120  A    between atoms: _268  and  _271
REMARK  121  A    between atoms: _271  and  _272
REMARK  122  A    between atoms: _272  and  _273
REMARK  123  A    between atoms: _276  and  _278
REMARK  124  A    between atoms: _278  and  _279
REMARK  125  A    between atoms: _278  and  _281
REMARK  126  A    between atoms: _281  and  _282
REMARK  127  A    between atoms: _282  and  _283
REMARK  128  A    between atoms: _285  and  _287
REMARK  129  A    between atoms: _287  and  _288
REMARK  130  A    between atoms: _287  and  _290
REMARK  131  A    between atoms: _293  and  _295
REMARK  132  A    between atoms: _295  and  _296
REMARK  133  A    between atoms: _295  and  _298
REMARK  134  A    between atoms: _298  and  _299
REMARK  135  A    between atoms: _299  and  _300
REMARK  136  A    between atoms: _302  and  _304
REMARK  137  A    between atoms: _304  and  _305
REMARK  138  A    between atoms: _304  and  _307
REMARK  139  A    between atoms: _307  and  _308
REMARK  140  A    between atoms: _308  and  _309
REMARK  141  A    between atoms: _312  and  _314
REMARK  142  A    between atoms: _314  and  _315
REMARK  143  A    between atoms: _314  and  _317
REMARK  144  A    between atoms: _317  and  _318
REMARK  145  A    between atoms: _323  and  _324
REMARK  146  A    between atoms: _326  and  _328
REMARK  147  A    between atoms: _328  and  _329
REMARK  148  A    between atoms: _328  and  _331
REMARK  149  A    between atoms: _335  and  _336
REMARK  150  A    between atoms: _341  and  _343
REMARK  151  A    between atoms: _343  and  _344
REMARK  152  A    between atoms: _346  and  _348
REMARK  153  A    between atoms: _348  and  _349
REMARK  154  A    between atoms: _351  and  _353
REMARK  155  A    between atoms: _353  and  _354
REMARK  156  A    between atoms: _353  and  _356
REMARK  157  A    between atoms: _356  and  _357
REMARK  158  A    between atoms: _357  and  _358
REMARK  159  A    between atoms: _361  and  _363
REMARK  160  A    between atoms: _363  and  _364
REMARK  161  A    between atoms: _363  and  _366
REMARK  162  A    between atoms: _366  and  _367
REMARK  163  A    between atoms: _367  and  _368
REMARK  164  A    between atoms: _370  and  _372
REMARK  165  A    between atoms: _372  and  _373
REMARK  166  A    between atoms: _372  and  _375
REMARK  167  A    between atoms: _375  and  _376
REMARK  168  A    between atoms: _382  and  _384
REMARK  169  A    between atoms: _384  and  _385
REMARK  170  A    between atoms: _384  and  _387
REMARK  171  A    between atoms: _387  and  _388
REMARK  172  A    between atoms: _390  and  _392
REMARK  173  A    between atoms: _392  and  _393
REMARK  174  A    between atoms: _392  and  _395
REMARK  175  A    between atoms: _395  and  _396
REMARK  176  A    between atoms: _401  and  _402
REMARK  177  A    between atoms: _404  and  _406
REMARK  178  A    between atoms: _406  and  _407
REMARK  179  A    between atoms: _406  and  _409
REMARK  180  A    between atoms: _409  and  _410
REMARK  181  A    between atoms: _410  and  _411
REMARK  182  A    between atoms: _411  and  _412
REMARK  183  A    between atoms: _421  and  _423
REMARK  184  A    between atoms: _423  and  _424
REMARK  185  A    between atoms: _423  and  _426
REMARK  186  A    between atoms: _426  and  _427
REMARK  187  A    between atoms: _430  and  _432
REMARK  188  A    between atoms: _432  and  _433
REMARK  189  A    between atoms: _432  and  _435
REMARK  190  A    between atoms: _435  and  _436
REMARK  191  A    between atoms: _439  and  _441
REMARK  192  A    between atoms: _441  and  _442
REMARK  193  A    between atoms: _441  and  _444
REMARK  194  A    between atoms: _444  and  _445
REMARK  195  A    between atoms: _445  and  _446
REMARK  196  A    between atoms: _446  and  _447
REMARK  197  A    between atoms: _447  and  _448
REMARK  198  A    between atoms: _453  and  _454
REMARK  199  A    between atoms: _459  and  _461
REMARK  200  A    between atoms: _461  and  _462
REMARK  201  A    between atoms: _461  and  _464
REMARK  202  A    between atoms: _464  and  _465
REMARK  203  A    between atoms: _465  and  _466
REMARK  204  A    between atoms: _469  and  _471
REMARK  205  A    between atoms: _471  and  _472
REMARK  206  A    between atoms: _471  and  _474
REMARK  207  A    between atoms: _474  and  _475
REMARK  208  A    between atoms: _480  and  _482
REMARK  209  A    between atoms: _482  and  _483
REMARK  210  A    between atoms: _482  and  _485
REMARK  211  A    between atoms: _485  and  _486
REMARK  212  A    between atoms: _489  and  _491
REMARK  213  A    between atoms: _491  and  _492
REMARK  214  A    between atoms: _491  and  _494
REMARK  215  A    between atoms: _494  and  _495
REMARK  216  A    between atoms: _498  and  _500
REMARK  217  A    between atoms: _500  and  _501
REMARK  218  A    between atoms: _500  and  _503
REMARK  219  A    between atoms: _503  and  _504
REMARK  220  A    between atoms: _507  and  _509
REMARK  221  A    between atoms: _509  and  _510
REMARK  222  A    between atoms: _509  and  _512
REMARK  223  A    between atoms: _512  and  _513
REMARK  224  A    between atoms: _513  and  _514
REMARK  225  A    between atoms: _519  and  _521
REMARK  226  A    between atoms: _521  and  _522
REMARK  227  A    between atoms: _521  and  _524
REMARK  228  A    between atoms: _527  and  _529
REMARK  229  A    between atoms: _529  and  _530
REMARK  230  A    between atoms: _529  and  _532
REMARK  231  A    between atoms: _532  and  _533
REMARK  232  A    between atoms: _536  and  _538
REMARK  233  A    between atoms: _538  and  _539
REMARK  234  A    between atoms: _538  and  _541
REMARK  235  A    between atoms: _541  and  _542
REMARK  236  A    between atoms: _545  and  _547
REMARK  237  A    between atoms: _547  and  _548
REMARK  238  A    between atoms: _547  and  _550
REMARK  239  A    between atoms: _550  and  _551
REMARK  240  A    between atoms: _557  and  _559
REMARK  241  A    between atoms: _559  and  _560
REMARK  242  A    between atoms: _562  and  _564
REMARK  243  A    between atoms: _564  and  _565
REMARK  244  A    between atoms: _564  and  _567
REMARK  245  A    between atoms: _567  and  _568
REMARK  246  A    between atoms: _574  and  _576
REMARK  247  A    between atoms: _576  and  _577
REMARK  248  A    between atoms: _576  and  _579
REMARK  249  A    between atoms: _581  and  _583
REMARK  250  A    between atoms: _583  and  _584
REMARK  251  A    between atoms: _586  and  _588
REMARK  252  A    between atoms: _588  and  _589
REMARK  253  A    between atoms: _588  and  _591
REMARK  254  A    between atoms: _591  and  _592
REMARK  255  A    between atoms: _596  and  _597
REMARK  256  A    between atoms: _602  and  _604
REMARK  257  A    between atoms: _604  and  _605
REMARK  258  A    between atoms: _604  and  _607
REMARK  259  A    between atoms: _607  and  _608
REMARK  260  A    between atoms: _613  and  _614
REMARK  261  A    between atoms: _616  and  _618
REMARK  262  A    between atoms: _618  and  _619
REMARK  263  A    between atoms: _618  and  _621
REMARK  264  A    between atoms: _621  and  _622
REMARK  265  A    between atoms: _625  and  _627
REMARK  266  A    between atoms: _627  and  _628
REMARK  267  A    between atoms: _627  and  _630
REMARK  268  A    between atoms: _630  and  _631
REMARK  269  A    between atoms: _636  and  _638
REMARK  270  A    between atoms: _638  and  _639
REMARK  271  A    between atoms: _638  and  _641
REMARK  272  A    between atoms: _641  and  _642
REMARK  273  A    between atoms: _648  and  _650
REMARK  274  A    between atoms: _650  and  _651
REMARK  275  A    between atoms: _650  and  _653
REMARK  276  A    between atoms: _653  and  _654
REMARK  277  A    between atoms: _657  and  _659
REMARK  278  A    between atoms: _659  and  _660
REMARK  279  A    between atoms: _659  and  _662
REMARK  280  A    between atoms: _662  and  _663
REMARK  281  A    between atoms: _668  and  _669
REMARK  282  A    between atoms: _671  and  _673
REMARK  283  A    between atoms: _673  and  _674
REMARK  284  A    between atoms: _673  and  _676
REMARK  285  A    between atoms: _676  and  _677
REMARK  286  A    between atoms: _677  and  _678
REMARK                            x       y       z     vdW  Elec       q    Type
REMARK                         _______ _______ _______ _____ _____    ______ ____
ROOT
ATOM      1  O   HOH     1      29.818  33.668   5.452  0.00  0.00    +0.000 OA
ENDROOT
TORSDOF 0
REMARK  Name = ../refined-set-2016/3bwj/3bwj_pocket.pdb
REMARK  286 active torsions:
REMARK  status: ('A' for Active; 'I' for Inactive)
REMARK    1  A    between atoms: _1  and  _3
REMARK    2  A    between atoms: _3  and  _4
REMARK    3  A    between atoms: _3  and  _6
REMARK    4  A    between atoms: _6  and  _7
REMARK    5  A    between atoms: _10  and  _12
REMARK    6  A    between atoms: _12  and  _13
REMARK    7  A    between atoms: _12  and  _15
REMARK    8  A    between atoms: _15  and  _16
REMARK    9  A    between atoms: _19  and  _21
REMARK   10  A    between atoms: _21  and  _22
REMARK   11  A    between atoms: _24  and  _26
REMARK   12  A    between atoms: _26  and  _27
REMARK   13  A    between atoms: _26  and  _29
REMARK   14  A    between atoms: _29  and  _30
REMARK   15  A    between atoms: _33  and  _35
REMARK   16  A    between atoms: _35  and  _36
REMARK   17  A    between atoms: _38  and  _40
REMARK   18  A    between atoms: _40  and  _41
REMARK   19  A    between atoms: _40  and  _43
REMARK   20  A    between atoms: _43  and  _44
REMARK   21  A    between atoms: _46  and  _48
REMARK   22  A    between atoms: _48  and  _49
REMARK   23  A    between atoms: _48  and  _51
REMARK   24  A    between atoms: _51  and  _52
REMARK   25  A    between atoms: _58  and  _60
REMARK   26  A    between atoms: _60  and  _61
REMARK   27  A    between atoms: _63  and  _65
REMARK   28  A    between atoms: _65  and  _66
REMARK   29  A    between atoms: _65  and  _68
REMARK   30  A    between atoms: _68  and  _69
REMARK   31  A    between atoms: _69  and  _70
REMARK   32  A    between atoms: _70  and  _71
REMARK   33  A    between atoms: _80  and  _82
REMARK   34  A    between atoms: _82  and  _83
REMARK   35  A    between atoms: _82  and  _85
REMARK   36  A    between atoms: _88  and  _90
REMARK   37  A    between atoms: _90  and  _91
REMARK   38  A    between atoms: _90  and  _93
REMARK   39  A    between atoms: _93  and  _94
REMARK   40  A    between atoms: _94  and  _95
REMARK   41  A    between atoms: _97  and  _99
REMARK   42  A    between atoms: _99  and  _100
REMARK   43  A    between atoms: _99  and  _102
REMARK   44  A    between atoms: _102  and  _103
REMARK   45  A    between atoms: _106  and  _108
REMARK   46  A    between atoms: _108  and  _109
REMARK   47  A    between atoms: _108  and  _111
REMARK   48  A    between atoms: _111  and  _112
REMARK   49  A    between atoms: _117  and  _118
REMARK   50  A    between atoms: _120  and  _122
REMARK   51  A    between atoms: _122  and  _123
REMARK   52  A    between atoms: _126  and  _128
REMARK   53  A    between atoms: _128  and  _129
REMARK   54  A    between atoms: _128  and  _131
REMARK   55  A    between atoms: _131  and  _132
REMARK   56  A    between atoms: _132  and  _133
REMARK   57  A    between atoms: _135  and  _137
REMARK   58  A    between atoms: _137  and  _138
REMARK   59  A    between atoms: _137  and  _140
REMARK   60  A    between atoms: _140  and  _141
REMARK   61  A    between atoms: _141  and  _142
REMARK   62  A    between atoms: _142  and  _143
REMARK   63  A    between atoms: _143  and  _144
REMARK   64  A    between atoms: _148  and  _150
REMARK   65  A    between atoms: _150  and  _151
REMARK   66  A    between atoms: _150  and  _153
REMARK   67  A    between atoms: _153  and  _154
REMARK   68  A    between atoms: _157  and  _159
REMARK   69  A    between atoms: _159  and  _160
REMARK   70  A    between atoms: _159  and  _162
REMARK   71  A    between atoms: _162  and  _163
REMARK   72  A    between atoms: _166  and  _168
REMARK   73  A    between atoms: _168  and  _169
REMARK   74  A    between atoms: _168  and  _171
REMARK   75  A    between atoms: _171  and  _172
REMARK   76  A    between atoms: _175  and  _177
REMARK   77  A    between atoms: _177  and  _178
REMARK   78  A    between atoms: _177  and  _180
REMARK   79  A    between atoms: _180  and  _181
REMARK   80  A    between atoms: _181  and  _182
REMARK   81  A    between atoms: _182  and  _183
REMARK   82  A    between atoms: _183  and  _184
REMARK   83  A    between atoms: _188  and  _190
REMARK   84  A    between atoms: _190  and  _191
REMARK   85  A    between atoms: _190  and  _193
REMARK   86  A    between atoms: _196  and  _198
REMARK   87  A    between atoms: _198  and  _199
REMARK   88  A    between atoms: _198  and  _201
REMARK   89  A    between atoms: _201  and  _202
REMARK   90  A    between atoms: _205  and  _207
REMARK   91  A    between atoms: _207  and  _208
REMARK   92  A    between atoms: _207  and  _210
REMARK   93  A    between atoms: _210  and  _211
REMARK   94  A    between atoms: _211  and  _212
REMARK   95  A    between atoms: _217  and  _219
REMARK   96  A    between atoms: _219  and  _220
REMARK   97  A    between atoms: _219  and  _222
REMARK   98  A    between atoms: _222  and  _223
REMARK   99  A    between atoms: _226  and  _228
REMARK  100  A    between atoms: _228  and  _229
REMARK  101  A    between atoms: _228  and  _231
REMARK  102  A    between atoms: _231  and  _232
REMARK  103  A    between atoms: _232  and  _233
REMARK  104  A    between atoms: _236  and  _238
REMARK  105  A    between atoms: _238  and  _239
REMARK  106  A    between atoms: _238  and  _241
REMARK  107  A    between atoms: _244  and  _246
REMARK  108  A    between atoms: _246  and  _247
REMARK  109  A    between atoms: _246  and  _249
REMARK  110  A    between atoms: _249  and  _250
REMARK  111  A    between atoms: _250  and  _251
REMARK  112  A    between atoms: _251  and  _252
REMARK  113  A    between atoms: _252  and  _253
REMARK  114  A    between atoms: _257  and  _259
REMARK  115  A    between atoms: _259  and  _260
REMARK  116  A    between atoms: _259  and  _262
REMARK  117  A    between atoms: _262  and  _263
REMARK  118  A    between atoms: _266  and  _268
REMARK  119  A    between atoms: _268  and  _269
REMARK  120  A    between atoms: _268  and  _271
REMARK  121  A    between atoms: _271  and  _272
REMARK  122  A    between atoms: _272  and  _273
REMARK  123  A    between atoms: _276  and  _278
REMARK  124  A    between atoms: _278  and  _279
REMARK  125  A    between atoms: _278  and  _281
REMARK  126  A    between atoms: _281  and  _282
REMARK  127  A    between atoms: _282  and  _283
REMARK  128  A    between atoms: _285  and  _287
REMARK  129  A    between atoms: _287  and  _288
REMARK  130  A    between atoms: _287  and  _290
REMARK  131  A    between atoms: _293  and  _295
REMARK  132  A    between atoms: _295  and  _296
REMARK  133  A    between atoms: _295  and  _298
REMARK  134  A    between atoms: _298  and  _299
REMARK  135  A    between atoms: _299  and  _300
REMARK  136  A    between atoms: _302  and  _304
REMARK  137  A    between atoms: _304  and  _305
REMARK  138  A    between atoms: _304  and  _307
REMARK  139  A    between atoms: _307  and  _308
REMARK  140  A    between atoms: _308  and  _309
REMARK  141  A    between atoms: _312  and  _314
REMARK  142  A    between atoms: _314  and  _315
REMARK  143  A    between atoms: _314  and  _317
REMARK  144  A    between atoms: _317  and  _318
REMARK  145  A    between atoms: _323  and  _324
REMARK  146  A    between atoms: _326  and  _328
REMARK  147  A    between atoms: _328  and  _329
REMARK  148  A    between atoms: _328  and  _331
REMARK  149  A    between atoms: _335  and  _336
REMARK  150  A    between atoms: _341  and  _343
REMARK  151  A    between atoms: _343  and  _344
REMARK  152  A    between atoms: _346  and  _348
REMARK  153  A    between atoms: _348  and  _349
REMARK  154  A    between atoms: _351  and  _353
REMARK  155  A    between atoms: _353  and  _354
REMARK  156  A    between atoms: _353  and  _356
REMARK  157  A    between atoms: _356  and  _357
REMARK  158  A    between atoms: _357  and  _358
REMARK  159  A    between atoms: _361  and  _363
REMARK  160  A    between atoms: _363  and  _364
REMARK  161  A    between atoms: _363  and  _366
REMARK  162  A    between atoms: _366  and  _367
REMARK  163  A    between atoms: _367  and  _368
REMARK  164  A    between atoms: _370  and  _372
REMARK  165  A    between atoms: _372  and  _373
REMARK  166  A    between atoms: _372  and  _375
REMARK  167  A    between atoms: _375  and  _376
REMARK  168  A    between atoms: _382  and  _384
REMARK  169  A    between atoms: _384  and  _385
REMARK  170  A    between atoms: _384  and  _387
REMARK  171  A    between atoms: _387  and  _388
REMARK  172  A    between atoms: _390  and  _392
REMARK  173  A    between atoms: _392  and  _393
REMARK  174  A    between atoms: _392  and  _395
REMARK  175  A    between atoms: _395  and  _396
REMARK  176  A    between atoms: _401  and  _402
REMARK  177  A    between atoms: _404  and  _406
REMARK  178  A    between atoms: _406  and  _407
REMARK  179  A    between atoms: _406  and  _409
REMARK  180  A    between atoms: _409  and  _410
REMARK  181  A    between atoms: _410  and  _411
REMARK  182  A    between atoms: _411  and  _412
REMARK  183  A    between atoms: _421  and  _423
REMARK  184  A    between atoms: _423  and  _424
REMARK  185  A    between atoms: _423  and  _426
REMARK  186  A    between atoms: _426  and  _427
REMARK  187  A    between atoms: _430  and  _432
REMARK  188  A    between atoms: _432  and  _433
REMARK  189  A    between atoms: _432  and  _435
REMARK  190  A    between atoms: _435  and  _436
REMARK  191  A    between atoms: _439  and  _441
REMARK  192  A    between atoms: _441  and  _442
REMARK  193  A    between atoms: _441  and  _444
REMARK  194  A    between atoms: _444  and  _445
REMARK  195  A    between atoms: _445  and  _446
REMARK  196  A    between atoms: _446  and  _447
REMARK  197  A    between atoms: _447  and  _448
REMARK  198  A    between atoms: _453  and  _454
REMARK  199  A    between atoms: _459  and  _461
REMARK  200  A    between atoms: _461  and  _462
REMARK  201  A    between atoms: _461  and  _464
REMARK  202  A    between atoms: _464  and  _465
REMARK  203  A    between atoms: _465  and  _466
REMARK  204  A    between atoms: _469  and  _471
REMARK  205  A    between atoms: _471  and  _472
REMARK  206  A    between atoms: _471  and  _474
REMARK  207  A    between atoms: _474  and  _475
REMARK  208  A    between atoms: _480  and  _482
REMARK  209  A    between atoms: _482  and  _483
REMARK  210  A    between atoms: _482  and  _485
REMARK  211  A    between atoms: _485  and  _486
REMARK  212  A    between atoms: _489  and  _491
REMARK  213  A    between atoms: _491  and  _492
REMARK  214  A    between atoms: _491  and  _494
REMARK  215  A    between atoms: _494  and  _495
REMARK  216  A    between atoms: _498  and  _500
REMARK  217  A    between atoms: _500  and  _501
REMARK  218  A    between atoms: _500  and  _503
REMARK  219  A    between atoms: _503  and  _504
REMARK  220  A    between atoms: _507  and  _509
REMARK  221  A    between atoms: _509  and  _510
REMARK  222  A    between atoms: _509  and  _512
REMARK  223  A    between atoms: _512  and  _513
REMARK  224  A    between atoms: _513  and  _514
REMARK  225  A    between atoms: _519  and  _521
REMARK  226  A    between atoms: _521  and  _522
REMARK  227  A    between atoms: _521  and  _524
REMARK  228  A    between atoms: _527  and  _529
REMARK  229  A    between atoms: _529  and  _530
REMARK  230  A    between atoms: _529  and  _532
REMARK  231  A    between atoms: _532  and  _533
REMARK  232  A    between atoms: _536  and  _538
REMARK  233  A    between atoms: _538  and  _539
REMARK  234  A    between atoms: _538  and  _541
REMARK  235  A    between atoms: _541  and  _542
REMARK  236  A    between atoms: _545  and  _547
REMARK  237  A    between atoms: _547  and  _548
REMARK  238  A    between atoms: _547  and  _550
REMARK  239  A    between atoms: _550  and  _551
REMARK  240  A    between atoms: _557  and  _559
REMARK  241  A    between atoms: _559  and  _560
REMARK  242  A    between atoms: _562  and  _564
REMARK  243  A    between atoms: _564  and  _565
REMARK  244  A    between atoms: _564  and  _567
REMARK  245  A    between atoms: _567  and  _568
REMARK  246  A    between atoms: _574  and  _576
REMARK  247  A    between atoms: _576  and  _577
REMARK  248  A    between atoms: _576  and  _579
REMARK  249  A    between atoms: _581  and  _583
REMARK  250  A    between atoms: _583  and  _584
REMARK  251  A    between atoms: _586  and  _588
REMARK  252  A    between atoms: _588  and  _589
REMARK  253  A    between atoms: _588  and  _591
REMARK  254  A    between atoms: _591  and  _592
REMARK  255  A    between atoms: _596  and  _597
REMARK  256  A    between atoms: _602  and  _604
REMARK  257  A    between atoms: _604  and  _605
REMARK  258  A    between atoms: _604  and  _607
REMARK  259  A    between atoms: _607  and  _608
REMARK  260  A    between atoms: _613  and  _614
REMARK  261  A    between atoms: _616  and  _618
REMARK  262  A    between atoms: _618  and  _619
REMARK  263  A    between atoms: _618  and  _621
REMARK  264  A    between atoms: _621  and  _622
REMARK  265  A    between atoms: _625  and  _627
REMARK  266  A    between atoms: _627  and  _628
REMARK  267  A    between atoms: _627  and  _630
REMARK  268  A    between atoms: _630  and  _631
REMARK  269  A    between atoms: _636  and  _638
REMARK  270  A    between atoms: _638  and  _639
REMARK  271  A    between atoms: _638  and  _641
REMARK  272  A    between atoms: _641  and  _642
REMARK  273  A    between atoms: _648  and  _650
REMARK  274  A    between atoms: _650  and  _651
REMARK  275  A    between atoms: _650  and  _653
REMARK  276  A    between atoms: _653  and  _654
REMARK  277  A    between atoms: _657  and  _659
REMARK  278  A    between atoms: _659  and  _660
REMARK  279  A    between atoms: _659  and  _662
REMARK  280  A    between atoms: _662  and  _663
REMARK  281  A    between atoms: _668  and  _669
REMARK  282  A    between atoms: _671  and  _673
REMARK  283  A    between atoms: _673  and  _674
REMARK  284  A    between atoms: _673  and  _676
REMARK  285  A    between atoms: _676  and  _677
REMARK  286  A    between atoms: _677  and  _678
REMARK                            x       y       z     vdW  Elec       q    Type
REMARK                         _______ _______ _______ _____ _____    ______ ____
ROOT
ATOM      1  O   HOH     1      34.785  28.275   9.801  0.00  0.00    +0.000 OA
ENDROOT
TORSDOF 0
REMARK  Name = ../refined-set-2016/3bwj/3bwj_pocket.pdb
REMARK  286 active torsions:
REMARK  status: ('A' for Active; 'I' for Inactive)
REMARK    1  A    between atoms: _1  and  _3
REMARK    2  A    between atoms: _3  and  _4
REMARK    3  A    between atoms: _3  and  _6
REMARK    4  A    between atoms: _6  and  _7
REMARK    5  A    between atoms: _10  and  _12
REMARK    6  A    between atoms: _12  and  _13
REMARK    7  A    between atoms: _12  and  _15
REMARK    8  A    between atoms: _15  and  _16
REMARK    9  A    between atoms: _19  and  _21
REMARK   10  A    between atoms: _21  and  _22
REMARK   11  A    between atoms: _24  and  _26
REMARK   12  A    between atoms: _26  and  _27
REMARK   13  A    between atoms: _26  and  _29
REMARK   14  A    between atoms: _29  and  _30
REMARK   15  A    between atoms: _33  and  _35
REMARK   16  A    between atoms: _35  and  _36
REMARK   17  A    between atoms: _38  and  _40
REMARK   18  A    between atoms: _40  and  _41
REMARK   19  A    between atoms: _40  and  _43
REMARK   20  A    between atoms: _43  and  _44
REMARK   21  A    between atoms: _46  and  _48
REMARK   22  A    between atoms: _48  and  _49
REMARK   23  A    between atoms: _48  and  _51
REMARK   24  A    between atoms: _51  and  _52
REMARK   25  A    between atoms: _58  and  _60
REMARK   26  A    between atoms: _60  and  _61
REMARK   27  A    between atoms: _63  and  _65
REMARK   28  A    between atoms: _65  and  _66
REMARK   29  A    between atoms: _65  and  _68
REMARK   30  A    between atoms: _68  and  _69
REMARK   31  A    between atoms: _69  and  _70
REMARK   32  A    between atoms: _70  and  _71
REMARK   33  A    between atoms: _80  and  _82
REMARK   34  A    between atoms: _82  and  _83
REMARK   35  A    between atoms: _82  and  _85
REMARK   36  A    between atoms: _88  and  _90
REMARK   37  A    between atoms: _90  and  _91
REMARK   38  A    between atoms: _90  and  _93
REMARK   39  A    between atoms: _93  and  _94
REMARK   40  A    between atoms: _94  and  _95
REMARK   41  A    between atoms: _97  and  _99
REMARK   42  A    between atoms: _99  and  _100
REMARK   43  A    between atoms: _99  and  _102
REMARK   44  A    between atoms: _102  and  _103
REMARK   45  A    between atoms: _106  and  _108
REMARK   46  A    between atoms: _108  and  _109
REMARK   47  A    between atoms: _108  and  _111
REMARK   48  A    between atoms: _111  and  _112
REMARK   49  A    between atoms: _117  and  _118
REMARK   50  A    between atoms: _120  and  _122
REMARK   51  A    between atoms: _122  and  _123
REMARK   52  A    between atoms: _126  and  _128
REMARK   53  A    between atoms: _128  and  _129
REMARK   54  A    between atoms: _128  and  _131
REMARK   55  A    between atoms: _131  and  _132
REMARK   56  A    between atoms: _132  and  _133
REMARK   57  A    between atoms: _135  and  _137
REMARK   58  A    between atoms: _137  and  _138
REMARK   59  A    between atoms: _137  and  _140
REMARK   60  A    between atoms: _140  and  _141
REMARK   61  A    between atoms: _141  and  _142
REMARK   62  A    between atoms: _142  and  _143
REMARK   63  A    between atoms: _143  and  _144
REMARK   64  A    between atoms: _148  and  _150
REMARK   65  A    between atoms: _150  and  _151
REMARK   66  A    between atoms: _150  and  _153
REMARK   67  A    between atoms: _153  and  _154
REMARK   68  A    between atoms: _157  and  _159
REMARK   69  A    between atoms: _159  and  _160
REMARK   70  A    between atoms: _159  and  _162
REMARK   71  A    between atoms: _162  and  _163
REMARK   72  A    between atoms: _166  and  _168
REMARK   73  A    between atoms: _168  and  _169
REMARK   74  A    between atoms: _168  and  _171
REMARK   75  A    between atoms: _171  and  _172
REMARK   76  A    between atoms: _175  and  _177
REMARK   77  A    between atoms: _177  and  _178
REMARK   78  A    between atoms: _177  and  _180
REMARK   79  A    between atoms: _180  and  _181
REMARK   80  A    between atoms: _181  and  _182
REMARK   81  A    between atoms: _182  and  _183
REMARK   82  A    between atoms: _183  and  _184
REMARK   83  A    between atoms: _188  and  _190
REMARK   84  A    between atoms: _190  and  _191
REMARK   85  A    between atoms: _190  and  _193
REMARK   86  A    between atoms: _196  and  _198
REMARK   87  A    between atoms: _198  and  _199
REMARK   88  A    between atoms: _198  and  _201
REMARK   89  A    between atoms: _201  and  _202
REMARK   90  A    between atoms: _205  and  _207
REMARK   91  A    between atoms: _207  and  _208
REMARK   92  A    between atoms: _207  and  _210
REMARK   93  A    between atoms: _210  and  _211
REMARK   94  A    between atoms: _211  and  _212
REMARK   95  A    between atoms: _217  and  _219
REMARK   96  A    between atoms: _219  and  _220
REMARK   97  A    between atoms: _219  and  _222
REMARK   98  A    between atoms: _222  and  _223
REMARK   99  A    between atoms: _226  and  _228
REMARK  100  A    between atoms: _228  and  _229
REMARK  101  A    between atoms: _228  and  _231
REMARK  102  A    between atoms: _231  and  _232
REMARK  103  A    between atoms: _232  and  _233
REMARK  104  A    between atoms: _236  and  _238
REMARK  105  A    between atoms: _238  and  _239
REMARK  106  A    between atoms: _238  and  _241
REMARK  107  A    between atoms: _244  and  _246
REMARK  108  A    between atoms: _246  and  _247
REMARK  109  A    between atoms: _246  and  _249
REMARK  110  A    between atoms: _249  and  _250
REMARK  111  A    between atoms: _250  and  _251
REMARK  112  A    between atoms: _251  and  _252
REMARK  113  A    between atoms: _252  and  _253
REMARK  114  A    between atoms: _257  and  _259
REMARK  115  A    between atoms: _259  and  _260
REMARK  116  A    between atoms: _259  and  _262
REMARK  117  A    between atoms: _262  and  _263
REMARK  118  A    between atoms: _266  and  _268
REMARK  119  A    between atoms: _268  and  _269
REMARK  120  A    between atoms: _268  and  _271
REMARK  121  A    between atoms: _271  and  _272
REMARK  122  A    between atoms: _272  and  _273
REMARK  123  A    between atoms: _276  and  _278
REMARK  124  A    between atoms: _278  and  _279
REMARK  125  A    between atoms: _278  and  _281
REMARK  126  A    between atoms: _281  and  _282
REMARK  127  A    between atoms: _282  and  _283
REMARK  128  A    between atoms: _285  and  _287
REMARK  129  A    between atoms: _287  and  _288
REMARK  130  A    between atoms: _287  and  _290
REMARK  131  A    between atoms: _293  and  _295
REMARK  132  A    between atoms: _295  and  _296
REMARK  133  A    between atoms: _295  and  _298
REMARK  134  A    between atoms: _298  and  _299
REMARK  135  A    between atoms: _299  and  _300
REMARK  136  A    between atoms: _302  and  _304
REMARK  137  A    between atoms: _304  and  _305
REMARK  138  A    between atoms: _304  and  _307
REMARK  139  A    between atoms: _307  and  _308
REMARK  140  A    between atoms: _308  and  _309
REMARK  141  A    between atoms: _312  and  _314
REMARK  142  A    between atoms: _314  and  _315
REMARK  143  A    between atoms: _314  and  _317
REMARK  144  A    between atoms: _317  and  _318
REMARK  145  A    between atoms: _323  and  _324
REMARK  146  A    between atoms: _326  and  _328
REMARK  147  A    between atoms: _328  and  _329
REMARK  148  A    between atoms: _328  and  _331
REMARK  149  A    between atoms: _335  and  _336
REMARK  150  A    between atoms: _341  and  _343
REMARK  151  A    between atoms: _343  and  _344
REMARK  152  A    between atoms: _346  and  _348
REMARK  153  A    between atoms: _348  and  _349
REMARK  154  A    between atoms: _351  and  _353
REMARK  155  A    between atoms: _353  and  _354
REMARK  156  A    between atoms: _353  and  _356
REMARK  157  A    between atoms: _356  and  _357
REMARK  158  A    between atoms: _357  and  _358
REMARK  159  A    between atoms: _361  and  _363
REMARK  160  A    between atoms: _363  and  _364
REMARK  161  A    between atoms: _363  and  _366
REMARK  162  A    between atoms: _366  and  _367
REMARK  163  A    between atoms: _367  and  _368
REMARK  164  A    between atoms: _370  and  _372
REMARK  165  A    between atoms: _372  and  _373
REMARK  166  A    between atoms: _372  and  _375
REMARK  167  A    between atoms: _375  and  _376
REMARK  168  A    between atoms: _382  and  _384
REMARK  169  A    between atoms: _384  and  _385
REMARK  170  A    between atoms: _384  and  _387
REMARK  171  A    between atoms: _387  and  _388
REMARK  172  A    between atoms: _390  and  _392
REMARK  173  A    between atoms: _392  and  _393
REMARK  174  A    between atoms: _392  and  _395
REMARK  175  A    between atoms: _395  and  _396
REMARK  176  A    between atoms: _401  and  _402
REMARK  177  A    between atoms: _404  and  _406
REMARK  178  A    between atoms: _406  and  _407
REMARK  179  A    between atoms: _406  and  _409
REMARK  180  A    between atoms: _409  and  _410
REMARK  181  A    between atoms: _410  and  _411
REMARK  182  A    between atoms: _411  and  _412
REMARK  183  A    between atoms: _421  and  _423
REMARK  184  A    between atoms: _423  and  _424
REMARK  185  A    between atoms: _423  and  _426
REMARK  186  A    between atoms: _426  and  _427
REMARK  187  A    between atoms: _430  and  _432
REMARK  188  A    between atoms: _432  and  _433
REMARK  189  A    between atoms: _432  and  _435
REMARK  190  A    between atoms: _435  and  _436
REMARK  191  A    between atoms: _439  and  _441
REMARK  192  A    between atoms: _441  and  _442
REMARK  193  A    between atoms: _441  and  _444
REMARK  194  A    between atoms: _444  and  _445
REMARK  195  A    between atoms: _445  and  _446
REMARK  196  A    between atoms: _446  and  _447
REMARK  197  A    between atoms: _447  and  _448
REMARK  198  A    between atoms: _453  and  _454
REMARK  199  A    between atoms: _459  and  _461
REMARK  200  A    between atoms: _461  and  _462
REMARK  201  A    between atoms: _461  and  _464
REMARK  202  A    between atoms: _464  and  _465
REMARK  203  A    between atoms: _465  and  _466
REMARK  204  A    between atoms: _469  and  _471
REMARK  205  A    between atoms: _471  and  _472
REMARK  206  A    between atoms: _471  and  _474
REMARK  207  A    between atoms: _474  and  _475
REMARK  208  A    between atoms: _480  and  _482
REMARK  209  A    between atoms: _482  and  _483
REMARK  210  A    between atoms: _482  and  _485
REMARK  211  A    between atoms: _485  and  _486
REMARK  212  A    between atoms: _489  and  _491
REMARK  213  A    between atoms: _491  and  _492
REMARK  214  A    between atoms: _491  and  _494
REMARK  215  A    between atoms: _494  and  _495
REMARK  216  A    between atoms: _498  and  _500
REMARK  217  A    between atoms: _500  and  _501
REMARK  218  A    between atoms: _500  and  _503
REMARK  219  A    between atoms: _503  and  _504
REMARK  220  A    between atoms: _507  and  _509
REMARK  221  A    between atoms: _509  and  _510
REMARK  222  A    between atoms: _509  and  _512
REMARK  223  A    between atoms: _512  and  _513
REMARK  224  A    between atoms: _513  and  _514
REMARK  225  A    between atoms: _519  and  _521
REMARK  226  A    between atoms: _521  and  _522
REMARK  227  A    between atoms: _521  and  _524
REMARK  228  A    between atoms: _527  and  _529
REMARK  229  A    between atoms: _529  and  _530
REMARK  230  A    between atoms: _529  and  _532
REMARK  231  A    between atoms: _532  and  _533
REMARK  232  A    between atoms: _536  and  _538
REMARK  233  A    between atoms: _538  and  _539
REMARK  234  A    between atoms: _538  and  _541
REMARK  235  A    between atoms: _541  and  _542
REMARK  236  A    between atoms: _545  and  _547
REMARK  237  A    between atoms: _547  and  _548
REMARK  238  A    between atoms: _547  and  _550
REMARK  239  A    between atoms: _550  and  _551
REMARK  240  A    between atoms: _557  and  _559
REMARK  241  A    between atoms: _559  and  _560
REMARK  242  A    between atoms: _562  and  _564
REMARK  243  A    between atoms: _564  and  _565
REMARK  244  A    between atoms: _564  and  _567
REMARK  245  A    between atoms: _567  and  _568
REMARK  246  A    between atoms: _574  and  _576
REMARK  247  A    between atoms: _576  and  _577
REMARK  248  A    between atoms: _576  and  _579
REMARK  249  A    between atoms: _581  and  _583
REMARK  250  A    between atoms: _583  and  _584
REMARK  251  A    between atoms: _586  and  _588
REMARK  252  A    between atoms: _588  and  _589
REMARK  253  A    between atoms: _588  and  _591
REMARK  254  A    between atoms: _591  and  _592
REMARK  255  A    between atoms: _596  and  _597
REMARK  256  A    between atoms: _602  and  _604
REMARK  257  A    between atoms: _604  and  _605
REMARK  258  A    between atoms: _604  and  _607
REMARK  259  A    between atoms: _607  and  _608
REMARK  260  A    between atoms: _613  and  _614
REMARK  261  A    between atoms: _616  and  _618
REMARK  262  A    between atoms: _618  and  _619
REMARK  263  A    between atoms: _618  and  _621
REMARK  264  A    between atoms: _621  and  _622
REMARK  265  A    between atoms: _625  and  _627
REMARK  266  A    between atoms: _627  and  _628
REMARK  267  A    between atoms: _627  and  _630
REMARK  268  A    between atoms: _630  and  _631
REMARK  269  A    between atoms: _636  and  _638
REMARK  270  A    between atoms: _638  and  _639
REMARK  271  A    between atoms: _638  and  _641
REMARK  272  A    between atoms: _641  and  _642
REMARK  273  A    between atoms: _648  and  _650
REMARK  274  A    between atoms: _650  and  _651
REMARK  275  A    between atoms: _650  and  _653
REMARK  276  A    between atoms: _653  and  _654
REMARK  277  A    between atoms: _657  and  _659
REMARK  278  A    between atoms: _659  and  _660
REMARK  279  A    between atoms: _659  and  _662
REMARK  280  A    between atoms: _662  and  _663
REMARK  281  A    between atoms: _668  and  _669
REMARK  282  A    between atoms: _671  and  _673
REMARK  283  A    between atoms: _673  and  _674
REMARK  284  A    between atoms: _673  and  _676
REMARK  285  A    between atoms: _676  and  _677
REMARK  286  A    between atoms: _677  and  _678
REMARK                            x       y       z     vdW  Elec       q    Type
REMARK                         _______ _______ _______ _____ _____    ______ ____
ROOT
ATOM      1  O   HOH     1      16.865  26.012   3.078  0.00  0.00    +0.000 OA
ENDROOT
TORSDOF 0
REMARK  Name = ../refined-set-2016/3bwj/3bwj_pocket.pdb
REMARK  286 active torsions:
REMARK  status: ('A' for Active; 'I' for Inactive)
REMARK    1  A    between atoms: _1  and  _3
REMARK    2  A    between atoms: _3  and  _4
REMARK    3  A    between atoms: _3  and  _6
REMARK    4  A    between atoms: _6  and  _7
REMARK    5  A    between atoms: _10  and  _12
REMARK    6  A    between atoms: _12  and  _13
REMARK    7  A    between atoms: _12  and  _15
REMARK    8  A    between atoms: _15  and  _16
REMARK    9  A    between atoms: _19  and  _21
REMARK   10  A    between atoms: _21  and  _22
REMARK   11  A    between atoms: _24  and  _26
REMARK   12  A    between atoms: _26  and  _27
REMARK   13  A    between atoms: _26  and  _29
REMARK   14  A    between atoms: _29  and  _30
REMARK   15  A    between atoms: _33  and  _35
REMARK   16  A    between atoms: _35  and  _36
REMARK   17  A    between atoms: _38  and  _40
REMARK   18  A    between atoms: _40  and  _41
REMARK   19  A    between atoms: _40  and  _43
REMARK   20  A    between atoms: _43  and  _44
REMARK   21  A    between atoms: _46  and  _48
REMARK   22  A    between atoms: _48  and  _49
REMARK   23  A    between atoms: _48  and  _51
REMARK   24  A    between atoms: _51  and  _52
REMARK   25  A    between atoms: _58  and  _60
REMARK   26  A    between atoms: _60  and  _61
REMARK   27  A    between atoms: _63  and  _65
REMARK   28  A    between atoms: _65  and  _66
REMARK   29  A    between atoms: _65  and  _68
REMARK   30  A    between atoms: _68  and  _69
REMARK   31  A    between atoms: _69  and  _70
REMARK   32  A    between atoms: _70  and  _71
REMARK   33  A    between atoms: _80  and  _82
REMARK   34  A    between atoms: _82  and  _83
REMARK   35  A    between atoms: _82  and  _85
REMARK   36  A    between atoms: _88  and  _90
REMARK   37  A    between atoms: _90  and  _91
REMARK   38  A    between atoms: _90  and  _93
REMARK   39  A    between atoms: _93  and  _94
REMARK   40  A    between atoms: _94  and  _95
REMARK   41  A    between atoms: _97  and  _99
REMARK   42  A    between atoms: _99  and  _100
REMARK   43  A    between atoms: _99  and  _102
REMARK   44  A    between atoms: _102  and  _103
REMARK   45  A    between atoms: _106  and  _108
REMARK   46  A    between atoms: _108  and  _109
REMARK   47  A    between atoms: _108  and  _111
REMARK   48  A    between atoms: _111  and  _112
REMARK   49  A    between atoms: _117  and  _118
REMARK   50  A    between atoms: _120  and  _122
REMARK   51  A    between atoms: _122  and  _123
REMARK   52  A    between atoms: _126  and  _128
REMARK   53  A    between atoms: _128  and  _129
REMARK   54  A    between atoms: _128  and  _131
REMARK   55  A    between atoms: _131  and  _132
REMARK   56  A    between atoms: _132  and  _133
REMARK   57  A    between atoms: _135  and  _137
REMARK   58  A    between atoms: _137  and  _138
REMARK   59  A    between atoms: _137  and  _140
REMARK   60  A    between atoms: _140  and  _141
REMARK   61  A    between atoms: _141  and  _142
REMARK   62  A    between atoms: _142  and  _143
REMARK   63  A    between atoms: _143  and  _144
REMARK   64  A    between atoms: _148  and  _150
REMARK   65  A    between atoms: _150  and  _151
REMARK   66  A    between atoms: _150  and  _153
REMARK   67  A    between atoms: _153  and  _154
REMARK   68  A    between atoms: _157  and  _159
REMARK   69  A    between atoms: _159  and  _160
REMARK   70  A    between atoms: _159  and  _162
REMARK   71  A    between atoms: _162  and  _163
REMARK   72  A    between atoms: _166  and  _168
REMARK   73  A    between atoms: _168  and  _169
REMARK   74  A    between atoms: _168  and  _171
REMARK   75  A    between atoms: _171  and  _172
REMARK   76  A    between atoms: _175  and  _177
REMARK   77  A    between atoms: _177  and  _178
REMARK   78  A    between atoms: _177  and  _180
REMARK   79  A    between atoms: _180  and  _181
REMARK   80  A    between atoms: _181  and  _182
REMARK   81  A    between atoms: _182  and  _183
REMARK   82  A    between atoms: _183  and  _184
REMARK   83  A    between atoms: _188  and  _190
REMARK   84  A    between atoms: _190  and  _191
REMARK   85  A    between atoms: _190  and  _193
REMARK   86  A    between atoms: _196  and  _198
REMARK   87  A    between atoms: _198  and  _199
REMARK   88  A    between atoms: _198  and  _201
REMARK   89  A    between atoms: _201  and  _202
REMARK   90  A    between atoms: _205  and  _207
REMARK   91  A    between atoms: _207  and  _208
REMARK   92  A    between atoms: _207  and  _210
REMARK   93  A    between atoms: _210  and  _211
REMARK   94  A    between atoms: _211  and  _212
REMARK   95  A    between atoms: _217  and  _219
REMARK   96  A    between atoms: _219  and  _220
REMARK   97  A    between atoms: _219  and  _222
REMARK   98  A    between atoms: _222  and  _223
REMARK   99  A    between atoms: _226  and  _228
REMARK  100  A    between atoms: _228  and  _229
REMARK  101  A    between atoms: _228  and  _231
REMARK  102  A    between atoms: _231  and  _232
REMARK  103  A    between atoms: _232  and  _233
REMARK  104  A    between atoms: _236  and  _238
REMARK  105  A    between atoms: _238  and  _239
REMARK  106  A    between atoms: _238  and  _241
REMARK  107  A    between atoms: _244  and  _246
REMARK  108  A    between atoms: _246  and  _247
REMARK  109  A    between atoms: _246  and  _249
REMARK  110  A    between atoms: _249  and  _250
REMARK  111  A    between atoms: _250  and  _251
REMARK  112  A    between atoms: _251  and  _252
REMARK  113  A    between atoms: _252  and  _253
REMARK  114  A    between atoms: _257  and  _259
REMARK  115  A    between atoms: _259  and  _260
REMARK  116  A    between atoms: _259  and  _262
REMARK  117  A    between atoms: _262  and  _263
REMARK  118  A    between atoms: _266  and  _268
REMARK  119  A    between atoms: _268  and  _269
REMARK  120  A    between atoms: _268  and  _271
REMARK  121  A    between atoms: _271  and  _272
REMARK  122  A    between atoms: _272  and  _273
REMARK  123  A    between atoms: _276  and  _278
REMARK  124  A    between atoms: _278  and  _279
REMARK  125  A    between atoms: _278  and  _281
REMARK  126  A    between atoms: _281  and  _282
REMARK  127  A    between atoms: _282  and  _283
REMARK  128  A    between atoms: _285  and  _287
REMARK  129  A    between atoms: _287  and  _288
REMARK  130  A    between atoms: _287  and  _290
REMARK  131  A    between atoms: _293  and  _295
REMARK  132  A    between atoms: _295  and  _296
REMARK  133  A    between atoms: _295  and  _298
REMARK  134  A    between atoms: _298  and  _299
REMARK  135  A    between atoms: _299  and  _300
REMARK  136  A    between atoms: _302  and  _304
REMARK  137  A    between atoms: _304  and  _305
REMARK  138  A    between atoms: _304  and  _307
REMARK  139  A    between atoms: _307  and  _308
REMARK  140  A    between atoms: _308  and  _309
REMARK  141  A    between atoms: _312  and  _314
REMARK  142  A    between atoms: _314  and  _315
REMARK  143  A    between atoms: _314  and  _317
REMARK  144  A    between atoms: _317  and  _318
REMARK  145  A    between atoms: _323  and  _324
REMARK  146  A    between atoms: _326  and  _328
REMARK  147  A    between atoms: _328  and  _329
REMARK  148  A    between atoms: _328  and  _331
REMARK  149  A    between atoms: _335  and  _336
REMARK  150  A    between atoms: _341  and  _343
REMARK  151  A    between atoms: _343  and  _344
REMARK  152  A    between atoms: _346  and  _348
REMARK  153  A    between atoms: _348  and  _349
REMARK  154  A    between atoms: _351  and  _353
REMARK  155  A    between atoms: _353  and  _354
REMARK  156  A    between atoms: _353  and  _356
REMARK  157  A    between atoms: _356  and  _357
REMARK  158  A    between atoms: _357  and  _358
REMARK  159  A    between atoms: _361  and  _363
REMARK  160  A    between atoms: _363  and  _364
REMARK  161  A    between atoms: _363  and  _366
REMARK  162  A    between atoms: _366  and  _367
REMARK  163  A    between atoms: _367  and  _368
REMARK  164  A    between atoms: _370  and  _372
REMARK  165  A    between atoms: _372  and  _373
REMARK  166  A    between atoms: _372  and  _375
REMARK  167  A    between atoms: _375  and  _376
REMARK  168  A    between atoms: _382  and  _384
REMARK  169  A    between atoms: _384  and  _385
REMARK  170  A    between atoms: _384  and  _387
REMARK  171  A    between atoms: _387  and  _388
REMARK  172  A    between atoms: _390  and  _392
REMARK  173  A    between atoms: _392  and  _393
REMARK  174  A    between atoms: _392  and  _395
REMARK  175  A    between atoms: _395  and  _396
REMARK  176  A    between atoms: _401  and  _402
REMARK  177  A    between atoms: _404  and  _406
REMARK  178  A    between atoms: _406  and  _407
REMARK  179  A    between atoms: _406  and  _409
REMARK  180  A    between atoms: _409  and  _410
REMARK  181  A    between atoms: _410  and  _411
REMARK  182  A    between atoms: _411  and  _412
REMARK  183  A    between atoms: _421  and  _423
REMARK  184  A    between atoms: _423  and  _424
REMARK  185  A    between atoms: _423  and  _426
REMARK  186  A    between atoms: _426  and  _427
REMARK  187  A    between atoms: _430  and  _432
REMARK  188  A    between atoms: _432  and  _433
REMARK  189  A    between atoms: _432  and  _435
REMARK  190  A    between atoms: _435  and  _436
REMARK  191  A    between atoms: _439  and  _441
REMARK  192  A    between atoms: _441  and  _442
REMARK  193  A    between atoms: _441  and  _444
REMARK  194  A    between atoms: _444  and  _445
REMARK  195  A    between atoms: _445  and  _446
REMARK  196  A    between atoms: _446  and  _447
REMARK  197  A    between atoms: _447  and  _448
REMARK  198  A    between atoms: _453  and  _454
REMARK  199  A    between atoms: _459  and  _461
REMARK  200  A    between atoms: _461  and  _462
REMARK  201  A    between atoms: _461  and  _464
REMARK  202  A    between atoms: _464  and  _465
REMARK  203  A    between atoms: _465  and  _466
REMARK  204  A    between atoms: _469  and  _471
REMARK  205  A    between atoms: _471  and  _472
REMARK  206  A    between atoms: _471  and  _474
REMARK  207  A    between atoms: _474  and  _475
REMARK  208  A    between atoms: _480  and  _482
REMARK  209  A    between atoms: _482  and  _483
REMARK  210  A    between atoms: _482  and  _485
REMARK  211  A    between atoms: _485  and  _486
REMARK  212  A    between atoms: _489  and  _491
REMARK  213  A    between atoms: _491  and  _492
REMARK  214  A    between atoms: _491  and  _494
REMARK  215  A    between atoms: _494  and  _495
REMARK  216  A    between atoms: _498  and  _500
REMARK  217  A    between atoms: _500  and  _501
REMARK  218  A    between atoms: _500  and  _503
REMARK  219  A    between atoms: _503  and  _504
REMARK  220  A    between atoms: _507  and  _509
REMARK  221  A    between atoms: _509  and  _510
REMARK  222  A    between atoms: _509  and  _512
REMARK  223  A    between atoms: _512  and  _513
REMARK  224  A    between atoms: _513  and  _514
REMARK  225  A    between atoms: _519  and  _521
REMARK  226  A    between atoms: _521  and  _522
REMARK  227  A    between atoms: _521  and  _524
REMARK  228  A    between atoms: _527  and  _529
REMARK  229  A    between atoms: _529  and  _530
REMARK  230  A    between atoms: _529  and  _532
REMARK  231  A    between atoms: _532  and  _533
REMARK  232  A    between atoms: _536  and  _538
REMARK  233  A    between atoms: _538  and  _539
REMARK  234  A    between atoms: _538  and  _541
REMARK  235  A    between atoms: _541  and  _542
REMARK  236  A    between atoms: _545  and  _547
REMARK  237  A    between atoms: _547  and  _548
REMARK  238  A    between atoms: _547  and  _550
REMARK  239  A    between atoms: _550  and  _551
REMARK  240  A    between atoms: _557  and  _559
REMARK  241  A    between atoms: _559  and  _560
REMARK  242  A    between atoms: _562  and  _564
REMARK  243  A    between atoms: _564  and  _565
REMARK  244  A    between atoms: _564  and  _567
REMARK  245  A    between atoms: _567  and  _568
REMARK  246  A    between atoms: _574  and  _576
REMARK  247  A    between atoms: _576  and  _577
REMARK  248  A    between atoms: _576  and  _579
REMARK  249  A    between atoms: _581  and  _583
REMARK  250  A    between atoms: _583  and  _584
REMARK  251  A    between atoms: _586  and  _588
REMARK  252  A    between atoms: _588  and  _589
REMARK  253  A    between atoms: _588  and  _591
REMARK  254  A    between atoms: _591  and  _592
REMARK  255  A    between atoms: _596  and  _597
REMARK  256  A    between atoms: _602  and  _604
REMARK  257  A    between atoms: _604  and  _605
REMARK  258  A    between atoms: _604  and  _607
REMARK  259  A    between atoms: _607  and  _608
REMARK  260  A    between atoms: _613  and  _614
REMARK  261  A    between atoms: _616  and  _618
REMARK  262  A    between atoms: _618  and  _619
REMARK  263  A    between atoms: _618  and  _621
REMARK  264  A    between atoms: _621  and  _622
REMARK  265  A    between atoms: _625  and  _627
REMARK  266  A    between atoms: _627  and  _628
REMARK  267  A    between atoms: _627  and  _630
REMARK  268  A    between atoms: _630  and  _631
REMARK  269  A    between atoms: _636  and  _638
REMARK  270  A    between atoms: _638  and  _639
REMARK  271  A    between atoms: _638  and  _641
REMARK  272  A    between atoms: _641  and  _642
REMARK  273  A    between atoms: _648  and  _650
REMARK  274  A    between atoms: _650  and  _651
REMARK  275  A    between atoms: _650  and  _653
REMARK  276  A    between atoms: _653  and  _654
REMARK  277  A    between atoms: _657  and  _659
REMARK  278  A    between atoms: _659  and  _660
REMARK  279  A    between atoms: _659  and  _662
REMARK  280  A    between atoms: _662  and  _663
REMARK  281  A    between atoms: _668  and  _669
REMARK  282  A    between atoms: _671  and  _673
REMARK  283  A    between atoms: _673  and  _674
REMARK  284  A    between atoms: _673  and  _676
REMARK  285  A    between atoms: _676  and  _677
REMARK  286  A    between atoms: _677  and  _678
REMARK                            x       y       z     vdW  Elec       q    Type
REMARK                         _______ _______ _______ _____ _____    ______ ____
ROOT
ATOM      1  O   HOH     1      31.651  30.335  10.378  0.00  0.00    +0.000 OA
ENDROOT
TORSDOF 0
REMARK  Name = ../refined-set-2016/3bwj/3bwj_pocket.pdb
REMARK  286 active torsions:
REMARK  status: ('A' for Active; 'I' for Inactive)
REMARK    1  A    between atoms: _1  and  _3
REMARK    2  A    between atoms: _3  and  _4
REMARK    3  A    between atoms: _3  and  _6
REMARK    4  A    between atoms: _6  and  _7
REMARK    5  A    between atoms: _10  and  _12
REMARK    6  A    between atoms: _12  and  _13
REMARK    7  A    between atoms: _12  and  _15
REMARK    8  A    between atoms: _15  and  _16
REMARK    9  A    between atoms: _19  and  _21
REMARK   10  A    between atoms: _21  and  _22
REMARK   11  A    between atoms: _24  and  _26
REMARK   12  A    between atoms: _26  and  _27
REMARK   13  A    between atoms: _26  and  _29
REMARK   14  A    between atoms: _29  and  _30
REMARK   15  A    between atoms: _33  and  _35
REMARK   16  A    between atoms: _35  and  _36
REMARK   17  A    between atoms: _38  and  _40
REMARK   18  A    between atoms: _40  and  _41
REMARK   19  A    between atoms: _40  and  _43
REMARK   20  A    between atoms: _43  and  _44
REMARK   21  A    between atoms: _46  and  _48
REMARK   22  A    between atoms: _48  and  _49
REMARK   23  A    between atoms: _48  and  _51
REMARK   24  A    between atoms: _51  and  _52
REMARK   25  A    between atoms: _58  and  _60
REMARK   26  A    between atoms: _60  and  _61
REMARK   27  A    between atoms: _63  and  _65
REMARK   28  A    between atoms: _65  and  _66
REMARK   29  A    between atoms: _65  and  _68
REMARK   30  A    between atoms: _68  and  _69
REMARK   31  A    between atoms: _69  and  _70
REMARK   32  A    between atoms: _70  and  _71
REMARK   33  A    between atoms: _80  and  _82
REMARK   34  A    between atoms: _82  and  _83
REMARK   35  A    between atoms: _82  and  _85
REMARK   36  A    between atoms: _88  and  _90
REMARK   37  A    between atoms: _90  and  _91
REMARK   38  A    between atoms: _90  and  _93
REMARK   39  A    between atoms: _93  and  _94
REMARK   40  A    between atoms: _94  and  _95
REMARK   41  A    between atoms: _97  and  _99
REMARK   42  A    between atoms: _99  and  _100
REMARK   43  A    between atoms: _99  and  _102
REMARK   44  A    between atoms: _102  and  _103
REMARK   45  A    between atoms: _106  and  _108
REMARK   46  A    between atoms: _108  and  _109
REMARK   47  A    between atoms: _108  and  _111
REMARK   48  A    between atoms: _111  and  _112
REMARK   49  A    between atoms: _117  and  _118
REMARK   50  A    between atoms: _120  and  _122
REMARK   51  A    between atoms: _122  and  _123
REMARK   52  A    between atoms: _126  and  _128
REMARK   53  A    between atoms: _128  and  _129
REMARK   54  A    between atoms: _128  and  _131
REMARK   55  A    between atoms: _131  and  _132
REMARK   56  A    between atoms: _132  and  _133
REMARK   57  A    between atoms: _135  and  _137
REMARK   58  A    between atoms: _137  and  _138
REMARK   59  A    between atoms: _137  and  _140
REMARK   60  A    between atoms: _140  and  _141
REMARK   61  A    between atoms: _141  and  _142
REMARK   62  A    between atoms: _142  and  _143
REMARK   63  A    between atoms: _143  and  _144
REMARK   64  A    between atoms: _148  and  _150
REMARK   65  A    between atoms: _150  and  _151
REMARK   66  A    between atoms: _150  and  _153
REMARK   67  A    between atoms: _153  and  _154
REMARK   68  A    between atoms: _157  and  _159
REMARK   69  A    between atoms: _159  and  _160
REMARK   70  A    between atoms: _159  and  _162
REMARK   71  A    between atoms: _162  and  _163
REMARK   72  A    between atoms: _166  and  _168
REMARK   73  A    between atoms: _168  and  _169
REMARK   74  A    between atoms: _168  and  _171
REMARK   75  A    between atoms: _171  and  _172
REMARK   76  A    between atoms: _175  and  _177
REMARK   77  A    between atoms: _177  and  _178
REMARK   78  A    between atoms: _177  and  _180
REMARK   79  A    between atoms: _180  and  _181
REMARK   80  A    between atoms: _181  and  _182
REMARK   81  A    between atoms: _182  and  _183
REMARK   82  A    between atoms: _183  and  _184
REMARK   83  A    between atoms: _188  and  _190
REMARK   84  A    between atoms: _190  and  _191
REMARK   85  A    between atoms: _190  and  _193
REMARK   86  A    between atoms: _196  and  _198
REMARK   87  A    between atoms: _198  and  _199
REMARK   88  A    between atoms: _198  and  _201
REMARK   89  A    between atoms: _201  and  _202
REMARK   90  A    between atoms: _205  and  _207
REMARK   91  A    between atoms: _207  and  _208
REMARK   92  A    between atoms: _207  and  _210
REMARK   93  A    between atoms: _210  and  _211
REMARK   94  A    between atoms: _211  and  _212
REMARK   95  A    between atoms: _217  and  _219
REMARK   96  A    between atoms: _219  and  _220
REMARK   97  A    between atoms: _219  and  _222
REMARK   98  A    between atoms: _222  and  _223
REMARK   99  A    between atoms: _226  and  _228
REMARK  100  A    between atoms: _228  and  _229
REMARK  101  A    between atoms: _228  and  _231
REMARK  102  A    between atoms: _231  and  _232
REMARK  103  A    between atoms: _232  and  _233
REMARK  104  A    between atoms: _236  and  _238
REMARK  105  A    between atoms: _238  and  _239
REMARK  106  A    between atoms: _238  and  _241
REMARK  107  A    between atoms: _244  and  _246
REMARK  108  A    between atoms: _246  and  _247
REMARK  109  A    between atoms: _246  and  _249
REMARK  110  A    between atoms: _249  and  _250
REMARK  111  A    between atoms: _250  and  _251
REMARK  112  A    between atoms: _251  and  _252
REMARK  113  A    between atoms: _252  and  _253
REMARK  114  A    between atoms: _257  and  _259
REMARK  115  A    between atoms: _259  and  _260
REMARK  116  A    between atoms: _259  and  _262
REMARK  117  A    between atoms: _262  and  _263
REMARK  118  A    between atoms: _266  and  _268
REMARK  119  A    between atoms: _268  and  _269
REMARK  120  A    between atoms: _268  and  _271
REMARK  121  A    between atoms: _271  and  _272
REMARK  122  A    between atoms: _272  and  _273
REMARK  123  A    between atoms: _276  and  _278
REMARK  124  A    between atoms: _278  and  _279
REMARK  125  A    between atoms: _278  and  _281
REMARK  126  A    between atoms: _281  and  _282
REMARK  127  A    between atoms: _282  and  _283
REMARK  128  A    between atoms: _285  and  _287
REMARK  129  A    between atoms: _287  and  _288
REMARK  130  A    between atoms: _287  and  _290
REMARK  131  A    between atoms: _293  and  _295
REMARK  132  A    between atoms: _295  and  _296
REMARK  133  A    between atoms: _295  and  _298
REMARK  134  A    between atoms: _298  and  _299
REMARK  135  A    between atoms: _299  and  _300
REMARK  136  A    between atoms: _302  and  _304
REMARK  137  A    between atoms: _304  and  _305
REMARK  138  A    between atoms: _304  and  _307
REMARK  139  A    between atoms: _307  and  _308
REMARK  140  A    between atoms: _308  and  _309
REMARK  141  A    between atoms: _312  and  _314
REMARK  142  A    between atoms: _314  and  _315
REMARK  143  A    between atoms: _314  and  _317
REMARK  144  A    between atoms: _317  and  _318
REMARK  145  A    between atoms: _323  and  _324
REMARK  146  A    between atoms: _326  and  _328
REMARK  147  A    between atoms: _328  and  _329
REMARK  148  A    between atoms: _328  and  _331
REMARK  149  A    between atoms: _335  and  _336
REMARK  150  A    between atoms: _341  and  _343
REMARK  151  A    between atoms: _343  and  _344
REMARK  152  A    between atoms: _346  and  _348
REMARK  153  A    between atoms: _348  and  _349
REMARK  154  A    between atoms: _351  and  _353
REMARK  155  A    between atoms: _353  and  _354
REMARK  156  A    between atoms: _353  and  _356
REMARK  157  A    between atoms: _356  and  _357
REMARK  158  A    between atoms: _357  and  _358
REMARK  159  A    between atoms: _361  and  _363
REMARK  160  A    between atoms: _363  and  _364
REMARK  161  A    between atoms: _363  and  _366
REMARK  162  A    between atoms: _366  and  _367
REMARK  163  A    between atoms: _367  and  _368
REMARK  164  A    between atoms: _370  and  _372
REMARK  165  A    between atoms: _372  and  _373
REMARK  166  A    between atoms: _372  and  _375
REMARK  167  A    between atoms: _375  and  _376
REMARK  168  A    between atoms: _382  and  _384
REMARK  169  A    between atoms: _384  and  _385
REMARK  170  A    between atoms: _384  and  _387
REMARK  171  A    between atoms: _387  and  _388
REMARK  172  A    between atoms: _390  and  _392
REMARK  173  A    between atoms: _392  and  _393
REMARK  174  A    between atoms: _392  and  _395
REMARK  175  A    between atoms: _395  and  _396
REMARK  176  A    between atoms: _401  and  _402
REMARK  177  A    between atoms: _404  and  _406
REMARK  178  A    between atoms: _406  and  _407
REMARK  179  A    between atoms: _406  and  _409
REMARK  180  A    between atoms: _409  and  _410
REMARK  181  A    between atoms: _410  and  _411
REMARK  182  A    between atoms: _411  and  _412
REMARK  183  A    between atoms: _421  and  _423
REMARK  184  A    between atoms: _423  and  _424
REMARK  185  A    between atoms: _423  and  _426
REMARK  186  A    between atoms: _426  and  _427
REMARK  187  A    between atoms: _430  and  _432
REMARK  188  A    between atoms: _432  and  _433
REMARK  189  A    between atoms: _432  and  _435
REMARK  190  A    between atoms: _435  and  _436
REMARK  191  A    between atoms: _439  and  _441
REMARK  192  A    between atoms: _441  and  _442
REMARK  193  A    between atoms: _441  and  _444
REMARK  194  A    between atoms: _444  and  _445
REMARK  195  A    between atoms: _445  and  _446
REMARK  196  A    between atoms: _446  and  _447
REMARK  197  A    between atoms: _447  and  _448
REMARK  198  A    between atoms: _453  and  _454
REMARK  199  A    between atoms: _459  and  _461
REMARK  200  A    between atoms: _461  and  _462
REMARK  201  A    between atoms: _461  and  _464
REMARK  202  A    between atoms: _464  and  _465
REMARK  203  A    between atoms: _465  and  _466
REMARK  204  A    between atoms: _469  and  _471
REMARK  205  A    between atoms: _471  and  _472
REMARK  206  A    between atoms: _471  and  _474
REMARK  207  A    between atoms: _474  and  _475
REMARK  208  A    between atoms: _480  and  _482
REMARK  209  A    between atoms: _482  and  _483
REMARK  210  A    between atoms: _482  and  _485
REMARK  211  A    between atoms: _485  and  _486
REMARK  212  A    between atoms: _489  and  _491
REMARK  213  A    between atoms: _491  and  _492
REMARK  214  A    between atoms: _491  and  _494
REMARK  215  A    between atoms: _494  and  _495
REMARK  216  A    between atoms: _498  and  _500
REMARK  217  A    between atoms: _500  and  _501
REMARK  218  A    between atoms: _500  and  _503
REMARK  219  A    between atoms: _503  and  _504
REMARK  220  A    between atoms: _507  and  _509
REMARK  221  A    between atoms: _509  and  _510
REMARK  222  A    between atoms: _509  and  _512
REMARK  223  A    between atoms: _512  and  _513
REMARK  224  A    between atoms: _513  and  _514
REMARK  225  A    between atoms: _519  and  _521
REMARK  226  A    between atoms: _521  and  _522
REMARK  227  A    between atoms: _521  and  _524
REMARK  228  A    between atoms: _527  and  _529
REMARK  229  A    between atoms: _529  and  _530
REMARK  230  A    between atoms: _529  and  _532
REMARK  231  A    between atoms: _532  and  _533
REMARK  232  A    between atoms: _536  and  _538
REMARK  233  A    between atoms: _538  and  _539
REMARK  234  A    between atoms: _538  and  _541
REMARK  235  A    between atoms: _541  and  _542
REMARK  236  A    between atoms: _545  and  _547
REMARK  237  A    between atoms: _547  and  _548
REMARK  238  A    between atoms: _547  and  _550
REMARK  239  A    between atoms: _550  and  _551
REMARK  240  A    between atoms: _557  and  _559
REMARK  241  A    between atoms: _559  and  _560
REMARK  242  A    between atoms: _562  and  _564
REMARK  243  A    between atoms: _564  and  _565
REMARK  244  A    between atoms: _564  and  _567
REMARK  245  A    between atoms: _567  and  _568
REMARK  246  A    between atoms: _574  and  _576
REMARK  247  A    between atoms: _576  and  _577
REMARK  248  A    between atoms: _576  and  _579
REMARK  249  A    between atoms: _581  and  _583
REMARK  250  A    between atoms: _583  and  _584
REMARK  251  A    between atoms: _586  and  _588
REMARK  252  A    between atoms: _588  and  _589
REMARK  253  A    between atoms: _588  and  _591
REMARK  254  A    between atoms: _591  and  _592
REMARK  255  A    between atoms: _596  and  _597
REMARK  256  A    between atoms: _602  and  _604
REMARK  257  A    between atoms: _604  and  _605
REMARK  258  A    between atoms: _604  and  _607
REMARK  259  A    between atoms: _607  and  _608
REMARK  260  A    between atoms: _613  and  _614
REMARK  261  A    between atoms: _616  and  _618
REMARK  262  A    between atoms: _618  and  _619
REMARK  263  A    between atoms: _618  and  _621
REMARK  264  A    between atoms: _621  and  _622
REMARK  265  A    between atoms: _625  and  _627
REMARK  266  A    between atoms: _627  and  _628
REMARK  267  A    between atoms: _627  and  _630
REMARK  268  A    between atoms: _630  and  _631
REMARK  269  A    between atoms: _636  and  _638
REMARK  270  A    between atoms: _638  and  _639
REMARK  271  A    between atoms: _638  and  _641
REMARK  272  A    between atoms: _641  and  _642
REMARK  273  A    between atoms: _648  and  _650
REMARK  274  A    between atoms: _650  and  _651
REMARK  275  A    between atoms: _650  and  _653
REMARK  276  A    between atoms: _653  and  _654
REMARK  277  A    between atoms: _657  and  _659
REMARK  278  A    between atoms: _659  and  _660
REMARK  279  A    between atoms: _659  and  _662
REMARK  280  A    between atoms: _662  and  _663
REMARK  281  A    between atoms: _668  and  _669
REMARK  282  A    between atoms: _671  and  _673
REMARK  283  A    between atoms: _673  and  _674
REMARK  284  A    between atoms: _673  and  _676
REMARK  285  A    between atoms: _676  and  _677
REMARK  286  A    between atoms: _677  and  _678
REMARK                            x       y       z     vdW  Elec       q    Type
REMARK                         _______ _______ _______ _____ _____    ______ ____
ROOT
ATOM      1  O   HOH     1      34.070  17.056  21.398  0.00  0.00    +0.000 OA
ENDROOT
TORSDOF 0
REMARK  Name = ../refined-set-2016/3bwj/3bwj_pocket.pdb
REMARK  286 active torsions:
REMARK  status: ('A' for Active; 'I' for Inactive)
REMARK    1  A    between atoms: _1  and  _3
REMARK    2  A    between atoms: _3  and  _4
REMARK    3  A    between atoms: _3  and  _6
REMARK    4  A    between atoms: _6  and  _7
REMARK    5  A    between atoms: _10  and  _12
REMARK    6  A    between atoms: _12  and  _13
REMARK    7  A    between atoms: _12  and  _15
REMARK    8  A    between atoms: _15  and  _16
REMARK    9  A    between atoms: _19  and  _21
REMARK   10  A    between atoms: _21  and  _22
REMARK   11  A    between atoms: _24  and  _26
REMARK   12  A    between atoms: _26  and  _27
REMARK   13  A    between atoms: _26  and  _29
REMARK   14  A    between atoms: _29  and  _30
REMARK   15  A    between atoms: _33  and  _35
REMARK   16  A    between atoms: _35  and  _36
REMARK   17  A    between atoms: _38  and  _40
REMARK   18  A    between atoms: _40  and  _41
REMARK   19  A    between atoms: _40  and  _43
REMARK   20  A    between atoms: _43  and  _44
REMARK   21  A    between atoms: _46  and  _48
REMARK   22  A    between atoms: _48  and  _49
REMARK   23  A    between atoms: _48  and  _51
REMARK   24  A    between atoms: _51  and  _52
REMARK   25  A    between atoms: _58  and  _60
REMARK   26  A    between atoms: _60  and  _61
REMARK   27  A    between atoms: _63  and  _65
REMARK   28  A    between atoms: _65  and  _66
REMARK   29  A    between atoms: _65  and  _68
REMARK   30  A    between atoms: _68  and  _69
REMARK   31  A    between atoms: _69  and  _70
REMARK   32  A    between atoms: _70  and  _71
REMARK   33  A    between atoms: _80  and  _82
REMARK   34  A    between atoms: _82  and  _83
REMARK   35  A    between atoms: _82  and  _85
REMARK   36  A    between atoms: _88  and  _90
REMARK   37  A    between atoms: _90  and  _91
REMARK   38  A    between atoms: _90  and  _93
REMARK   39  A    between atoms: _93  and  _94
REMARK   40  A    between atoms: _94  and  _95
REMARK   41  A    between atoms: _97  and  _99
REMARK   42  A    between atoms: _99  and  _100
REMARK   43  A    between atoms: _99  and  _102
REMARK   44  A    between atoms: _102  and  _103
REMARK   45  A    between atoms: _106  and  _108
REMARK   46  A    between atoms: _108  and  _109
REMARK   47  A    between atoms: _108  and  _111
REMARK   48  A    between atoms: _111  and  _112
REMARK   49  A    between atoms: _117  and  _118
REMARK   50  A    between atoms: _120  and  _122
REMARK   51  A    between atoms: _122  and  _123
REMARK   52  A    between atoms: _126  and  _128
REMARK   53  A    between atoms: _128  and  _129
REMARK   54  A    between atoms: _128  and  _131
REMARK   55  A    between atoms: _131  and  _132
REMARK   56  A    between atoms: _132  and  _133
REMARK   57  A    between atoms: _135  and  _137
REMARK   58  A    between atoms: _137  and  _138
REMARK   59  A    between atoms: _137  and  _140
REMARK   60  A    between atoms: _140  and  _141
REMARK   61  A    between atoms: _141  and  _142
REMARK   62  A    between atoms: _142  and  _143
REMARK   63  A    between atoms: _143  and  _144
REMARK   64  A    between atoms: _148  and  _150
REMARK   65  A    between atoms: _150  and  _151
REMARK   66  A    between atoms: _150  and  _153
REMARK   67  A    between atoms: _153  and  _154
REMARK   68  A    between atoms: _157  and  _159
REMARK   69  A    between atoms: _159  and  _160
REMARK   70  A    between atoms: _159  and  _162
REMARK   71  A    between atoms: _162  and  _163
REMARK   72  A    between atoms: _166  and  _168
REMARK   73  A    between atoms: _168  and  _169
REMARK   74  A    between atoms: _168  and  _171
REMARK   75  A    between atoms: _171  and  _172
REMARK   76  A    between atoms: _175  and  _177
REMARK   77  A    between atoms: _177  and  _178
REMARK   78  A    between atoms: _177  and  _180
REMARK   79  A    between atoms: _180  and  _181
REMARK   80  A    between atoms: _181  and  _182
REMARK   81  A    between atoms: _182  and  _183
REMARK   82  A    between atoms: _183  and  _184
REMARK   83  A    between atoms: _188  and  _190
REMARK   84  A    between atoms: _190  and  _191
REMARK   85  A    between atoms: _190  and  _193
REMARK   86  A    between atoms: _196  and  _198
REMARK   87  A    between atoms: _198  and  _199
REMARK   88  A    between atoms: _198  and  _201
REMARK   89  A    between atoms: _201  and  _202
REMARK   90  A    between atoms: _205  and  _207
REMARK   91  A    between atoms: _207  and  _208
REMARK   92  A    between atoms: _207  and  _210
REMARK   93  A    between atoms: _210  and  _211
REMARK   94  A    between atoms: _211  and  _212
REMARK   95  A    between atoms: _217  and  _219
REMARK   96  A    between atoms: _219  and  _220
REMARK   97  A    between atoms: _219  and  _222
REMARK   98  A    between atoms: _222  and  _223
REMARK   99  A    between atoms: _226  and  _228
REMARK  100  A    between atoms: _228  and  _229
REMARK  101  A    between atoms: _228  and  _231
REMARK  102  A    between atoms: _231  and  _232
REMARK  103  A    between atoms: _232  and  _233
REMARK  104  A    between atoms: _236  and  _238
REMARK  105  A    between atoms: _238  and  _239
REMARK  106  A    between atoms: _238  and  _241
REMARK  107  A    between atoms: _244  and  _246
REMARK  108  A    between atoms: _246  and  _247
REMARK  109  A    between atoms: _246  and  _249
REMARK  110  A    between atoms: _249  and  _250
REMARK  111  A    between atoms: _250  and  _251
REMARK  112  A    between atoms: _251  and  _252
REMARK  113  A    between atoms: _252  and  _253
REMARK  114  A    between atoms: _257  and  _259
REMARK  115  A    between atoms: _259  and  _260
REMARK  116  A    between atoms: _259  and  _262
REMARK  117  A    between atoms: _262  and  _263
REMARK  118  A    between atoms: _266  and  _268
REMARK  119  A    between atoms: _268  and  _269
REMARK  120  A    between atoms: _268  and  _271
REMARK  121  A    between atoms: _271  and  _272
REMARK  122  A    between atoms: _272  and  _273
REMARK  123  A    between atoms: _276  and  _278
REMARK  124  A    between atoms: _278  and  _279
REMARK  125  A    between atoms: _278  and  _281
REMARK  126  A    between atoms: _281  and  _282
REMARK  127  A    between atoms: _282  and  _283
REMARK  128  A    between atoms: _285  and  _287
REMARK  129  A    between atoms: _287  and  _288
REMARK  130  A    between atoms: _287  and  _290
REMARK  131  A    between atoms: _293  and  _295
REMARK  132  A    between atoms: _295  and  _296
REMARK  133  A    between atoms: _295  and  _298
REMARK  134  A    between atoms: _298  and  _299
REMARK  135  A    between atoms: _299  and  _300
REMARK  136  A    between atoms: _302  and  _304
REMARK  137  A    between atoms: _304  and  _305
REMARK  138  A    between atoms: _304  and  _307
REMARK  139  A    between atoms: _307  and  _308
REMARK  140  A    between atoms: _308  and  _309
REMARK  141  A    between atoms: _312  and  _314
REMARK  142  A    between atoms: _314  and  _315
REMARK  143  A    between atoms: _314  and  _317
REMARK  144  A    between atoms: _317  and  _318
REMARK  145  A    between atoms: _323  and  _324
REMARK  146  A    between atoms: _326  and  _328
REMARK  147  A    between atoms: _328  and  _329
REMARK  148  A    between atoms: _328  and  _331
REMARK  149  A    between atoms: _335  and  _336
REMARK  150  A    between atoms: _341  and  _343
REMARK  151  A    between atoms: _343  and  _344
REMARK  152  A    between atoms: _346  and  _348
REMARK  153  A    between atoms: _348  and  _349
REMARK  154  A    between atoms: _351  and  _353
REMARK  155  A    between atoms: _353  and  _354
REMARK  156  A    between atoms: _353  and  _356
REMARK  157  A    between atoms: _356  and  _357
REMARK  158  A    between atoms: _357  and  _358
REMARK  159  A    between atoms: _361  and  _363
REMARK  160  A    between atoms: _363  and  _364
REMARK  161  A    between atoms: _363  and  _366
REMARK  162  A    between atoms: _366  and  _367
REMARK  163  A    between atoms: _367  and  _368
REMARK  164  A    between atoms: _370  and  _372
REMARK  165  A    between atoms: _372  and  _373
REMARK  166  A    between atoms: _372  and  _375
REMARK  167  A    between atoms: _375  and  _376
REMARK  168  A    between atoms: _382  and  _384
REMARK  169  A    between atoms: _384  and  _385
REMARK  170  A    between atoms: _384  and  _387
REMARK  171  A    between atoms: _387  and  _388
REMARK  172  A    between atoms: _390  and  _392
REMARK  173  A    between atoms: _392  and  _393
REMARK  174  A    between atoms: _392  and  _395
REMARK  175  A    between atoms: _395  and  _396
REMARK  176  A    between atoms: _401  and  _402
REMARK  177  A    between atoms: _404  and  _406
REMARK  178  A    between atoms: _406  and  _407
REMARK  179  A    between atoms: _406  and  _409
REMARK  180  A    between atoms: _409  and  _410
REMARK  181  A    between atoms: _410  and  _411
REMARK  182  A    between atoms: _411  and  _412
REMARK  183  A    between atoms: _421  and  _423
REMARK  184  A    between atoms: _423  and  _424
REMARK  185  A    between atoms: _423  and  _426
REMARK  186  A    between atoms: _426  and  _427
REMARK  187  A    between atoms: _430  and  _432
REMARK  188  A    between atoms: _432  and  _433
REMARK  189  A    between atoms: _432  and  _435
REMARK  190  A    between atoms: _435  and  _436
REMARK  191  A    between atoms: _439  and  _441
REMARK  192  A    between atoms: _441  and  _442
REMARK  193  A    between atoms: _441  and  _444
REMARK  194  A    between atoms: _444  and  _445
REMARK  195  A    between atoms: _445  and  _446
REMARK  196  A    between atoms: _446  and  _447
REMARK  197  A    between atoms: _447  and  _448
REMARK  198  A    between atoms: _453  and  _454
REMARK  199  A    between atoms: _459  and  _461
REMARK  200  A    between atoms: _461  and  _462
REMARK  201  A    between atoms: _461  and  _464
REMARK  202  A    between atoms: _464  and  _465
REMARK  203  A    between atoms: _465  and  _466
REMARK  204  A    between atoms: _469  and  _471
REMARK  205  A    between atoms: _471  and  _472
REMARK  206  A    between atoms: _471  and  _474
REMARK  207  A    between atoms: _474  and  _475
REMARK  208  A    between atoms: _480  and  _482
REMARK  209  A    between atoms: _482  and  _483
REMARK  210  A    between atoms: _482  and  _485
REMARK  211  A    between atoms: _485  and  _486
REMARK  212  A    between atoms: _489  and  _491
REMARK  213  A    between atoms: _491  and  _492
REMARK  214  A    between atoms: _491  and  _494
REMARK  215  A    between atoms: _494  and  _495
REMARK  216  A    between atoms: _498  and  _500
REMARK  217  A    between atoms: _500  and  _501
REMARK  218  A    between atoms: _500  and  _503
REMARK  219  A    between atoms: _503  and  _504
REMARK  220  A    between atoms: _507  and  _509
REMARK  221  A    between atoms: _509  and  _510
REMARK  222  A    between atoms: _509  and  _512
REMARK  223  A    between atoms: _512  and  _513
REMARK  224  A    between atoms: _513  and  _514
REMARK  225  A    between atoms: _519  and  _521
REMARK  226  A    between atoms: _521  and  _522
REMARK  227  A    between atoms: _521  and  _524
REMARK  228  A    between atoms: _527  and  _529
REMARK  229  A    between atoms: _529  and  _530
REMARK  230  A    between atoms: _529  and  _532
REMARK  231  A    between atoms: _532  and  _533
REMARK  232  A    between atoms: _536  and  _538
REMARK  233  A    between atoms: _538  and  _539
REMARK  234  A    between atoms: _538  and  _541
REMARK  235  A    between atoms: _541  and  _542
REMARK  236  A    between atoms: _545  and  _547
REMARK  237  A    between atoms: _547  and  _548
REMARK  238  A    between atoms: _547  and  _550
REMARK  239  A    between atoms: _550  and  _551
REMARK  240  A    between atoms: _557  and  _559
REMARK  241  A    between atoms: _559  and  _560
REMARK  242  A    between atoms: _562  and  _564
REMARK  243  A    between atoms: _564  and  _565
REMARK  244  A    between atoms: _564  and  _567
REMARK  245  A    between atoms: _567  and  _568
REMARK  246  A    between atoms: _574  and  _576
REMARK  247  A    between atoms: _576  and  _577
REMARK  248  A    between atoms: _576  and  _579
REMARK  249  A    between atoms: _581  and  _583
REMARK  250  A    between atoms: _583  and  _584
REMARK  251  A    between atoms: _586  and  _588
REMARK  252  A    between atoms: _588  and  _589
REMARK  253  A    between atoms: _588  and  _591
REMARK  254  A    between atoms: _591  and  _592
REMARK  255  A    between atoms: _596  and  _597
REMARK  256  A    between atoms: _602  and  _604
REMARK  257  A    between atoms: _604  and  _605
REMARK  258  A    between atoms: _604  and  _607
REMARK  259  A    between atoms: _607  and  _608
REMARK  260  A    between atoms: _613  and  _614
REMARK  261  A    between atoms: _616  and  _618
REMARK  262  A    between atoms: _618  and  _619
REMARK  263  A    between atoms: _618  and  _621
REMARK  264  A    between atoms: _621  and  _622
REMARK  265  A    between atoms: _625  and  _627
REMARK  266  A    between atoms: _627  and  _628
REMARK  267  A    between atoms: _627  and  _630
REMARK  268  A    between atoms: _630  and  _631
REMARK  269  A    between atoms: _636  and  _638
REMARK  270  A    between atoms: _638  and  _639
REMARK  271  A    between atoms: _638  and  _641
REMARK  272  A    between atoms: _641  and  _642
REMARK  273  A    between atoms: _648  and  _650
REMARK  274  A    between atoms: _650  and  _651
REMARK  275  A    between atoms: _650  and  _653
REMARK  276  A    between atoms: _653  and  _654
REMARK  277  A    between atoms: _657  and  _659
REMARK  278  A    between atoms: _659  and  _660
REMARK  279  A    between atoms: _659  and  _662
REMARK  280  A    between atoms: _662  and  _663
REMARK  281  A    between atoms: _668  and  _669
REMARK  282  A    between atoms: _671  and  _673
REMARK  283  A    between atoms: _673  and  _674
REMARK  284  A    between atoms: _673  and  _676
REMARK  285  A    between atoms: _676  and  _677
REMARK  286  A    between atoms: _677  and  _678
REMARK                            x       y       z     vdW  Elec       q    Type
REMARK                         _______ _______ _______ _____ _____    ______ ____
ROOT
ATOM      1  O   HOH     1      30.364  32.744  11.102  0.00  0.00    +0.000 OA
ENDROOT
TORSDOF 0
REMARK  Name = ../refined-set-2016/3bwj/3bwj_pocket.pdb
REMARK  286 active torsions:
REMARK  status: ('A' for Active; 'I' for Inactive)
REMARK    1  A    between atoms: _1  and  _3
REMARK    2  A    between atoms: _3  and  _4
REMARK    3  A    between atoms: _3  and  _6
REMARK    4  A    between atoms: _6  and  _7
REMARK    5  A    between atoms: _10  and  _12
REMARK    6  A    between atoms: _12  and  _13
REMARK    7  A    between atoms: _12  and  _15
REMARK    8  A    between atoms: _15  and  _16
REMARK    9  A    between atoms: _19  and  _21
REMARK   10  A    between atoms: _21  and  _22
REMARK   11  A    between atoms: _24  and  _26
REMARK   12  A    between atoms: _26  and  _27
REMARK   13  A    between atoms: _26  and  _29
REMARK   14  A    between atoms: _29  and  _30
REMARK   15  A    between atoms: _33  and  _35
REMARK   16  A    between atoms: _35  and  _36
REMARK   17  A    between atoms: _38  and  _40
REMARK   18  A    between atoms: _40  and  _41
REMARK   19  A    between atoms: _40  and  _43
REMARK   20  A    between atoms: _43  and  _44
REMARK   21  A    between atoms: _46  and  _48
REMARK   22  A    between atoms: _48  and  _49
REMARK   23  A    between atoms: _48  and  _51
REMARK   24  A    between atoms: _51  and  _52
REMARK   25  A    between atoms: _58  and  _60
REMARK   26  A    between atoms: _60  and  _61
REMARK   27  A    between atoms: _63  and  _65
REMARK   28  A    between atoms: _65  and  _66
REMARK   29  A    between atoms: _65  and  _68
REMARK   30  A    between atoms: _68  and  _69
REMARK   31  A    between atoms: _69  and  _70
REMARK   32  A    between atoms: _70  and  _71
REMARK   33  A    between atoms: _80  and  _82
REMARK   34  A    between atoms: _82  and  _83
REMARK   35  A    between atoms: _82  and  _85
REMARK   36  A    between atoms: _88  and  _90
REMARK   37  A    between atoms: _90  and  _91
REMARK   38  A    between atoms: _90  and  _93
REMARK   39  A    between atoms: _93  and  _94
REMARK   40  A    between atoms: _94  and  _95
REMARK   41  A    between atoms: _97  and  _99
REMARK   42  A    between atoms: _99  and  _100
REMARK   43  A    between atoms: _99  and  _102
REMARK   44  A    between atoms: _102  and  _103
REMARK   45  A    between atoms: _106  and  _108
REMARK   46  A    between atoms: _108  and  _109
REMARK   47  A    between atoms: _108  and  _111
REMARK   48  A    between atoms: _111  and  _112
REMARK   49  A    between atoms: _117  and  _118
REMARK   50  A    between atoms: _120  and  _122
REMARK   51  A    between atoms: _122  and  _123
REMARK   52  A    between atoms: _126  and  _128
REMARK   53  A    between atoms: _128  and  _129
REMARK   54  A    between atoms: _128  and  _131
REMARK   55  A    between atoms: _131  and  _132
REMARK   56  A    between atoms: _132  and  _133
REMARK   57  A    between atoms: _135  and  _137
REMARK   58  A    between atoms: _137  and  _138
REMARK   59  A    between atoms: _137  and  _140
REMARK   60  A    between atoms: _140  and  _141
REMARK   61  A    between atoms: _141  and  _142
REMARK   62  A    between atoms: _142  and  _143
REMARK   63  A    between atoms: _143  and  _144
REMARK   64  A    between atoms: _148  and  _150
REMARK   65  A    between atoms: _150  and  _151
REMARK   66  A    between atoms: _150  and  _153
REMARK   67  A    between atoms: _153  and  _154
REMARK   68  A    between atoms: _157  and  _159
REMARK   69  A    between atoms: _159  and  _160
REMARK   70  A    between atoms: _159  and  _162
REMARK   71  A    between atoms: _162  and  _163
REMARK   72  A    between atoms: _166  and  _168
REMARK   73  A    between atoms: _168  and  _169
REMARK   74  A    between atoms: _168  and  _171
REMARK   75  A    between atoms: _171  and  _172
REMARK   76  A    between atoms: _175  and  _177
REMARK   77  A    between atoms: _177  and  _178
REMARK   78  A    between atoms: _177  and  _180
REMARK   79  A    between atoms: _180  and  _181
REMARK   80  A    between atoms: _181  and  _182
REMARK   81  A    between atoms: _182  and  _183
REMARK   82  A    between atoms: _183  and  _184
REMARK   83  A    between atoms: _188  and  _190
REMARK   84  A    between atoms: _190  and  _191
REMARK   85  A    between atoms: _190  and  _193
REMARK   86  A    between atoms: _196  and  _198
REMARK   87  A    between atoms: _198  and  _199
REMARK   88  A    between atoms: _198  and  _201
REMARK   89  A    between atoms: _201  and  _202
REMARK   90  A    between atoms: _205  and  _207
REMARK   91  A    between atoms: _207  and  _208
REMARK   92  A    between atoms: _207  and  _210
REMARK   93  A    between atoms: _210  and  _211
REMARK   94  A    between atoms: _211  and  _212
REMARK   95  A    between atoms: _217  and  _219
REMARK   96  A    between atoms: _219  and  _220
REMARK   97  A    between atoms: _219  and  _222
REMARK   98  A    between atoms: _222  and  _223
REMARK   99  A    between atoms: _226  and  _228
REMARK  100  A    between atoms: _228  and  _229
REMARK  101  A    between atoms: _228  and  _231
REMARK  102  A    between atoms: _231  and  _232
REMARK  103  A    between atoms: _232  and  _233
REMARK  104  A    between atoms: _236  and  _238
REMARK  105  A    between atoms: _238  and  _239
REMARK  106  A    between atoms: _238  and  _241
REMARK  107  A    between atoms: _244  and  _246
REMARK  108  A    between atoms: _246  and  _247
REMARK  109  A    between atoms: _246  and  _249
REMARK  110  A    between atoms: _249  and  _250
REMARK  111  A    between atoms: _250  and  _251
REMARK  112  A    between atoms: _251  and  _252
REMARK  113  A    between atoms: _252  and  _253
REMARK  114  A    between atoms: _257  and  _259
REMARK  115  A    between atoms: _259  and  _260
REMARK  116  A    between atoms: _259  and  _262
REMARK  117  A    between atoms: _262  and  _263
REMARK  118  A    between atoms: _266  and  _268
REMARK  119  A    between atoms: _268  and  _269
REMARK  120  A    between atoms: _268  and  _271
REMARK  121  A    between atoms: _271  and  _272
REMARK  122  A    between atoms: _272  and  _273
REMARK  123  A    between atoms: _276  and  _278
REMARK  124  A    between atoms: _278  and  _279
REMARK  125  A    between atoms: _278  and  _281
REMARK  126  A    between atoms: _281  and  _282
REMARK  127  A    between atoms: _282  and  _283
REMARK  128  A    between atoms: _285  and  _287
REMARK  129  A    between atoms: _287  and  _288
REMARK  130  A    between atoms: _287  and  _290
REMARK  131  A    between atoms: _293  and  _295
REMARK  132  A    between atoms: _295  and  _296
REMARK  133  A    between atoms: _295  and  _298
REMARK  134  A    between atoms: _298  and  _299
REMARK  135  A    between atoms: _299  and  _300
REMARK  136  A    between atoms: _302  and  _304
REMARK  137  A    between atoms: _304  and  _305
REMARK  138  A    between atoms: _304  and  _307
REMARK  139  A    between atoms: _307  and  _308
REMARK  140  A    between atoms: _308  and  _309
REMARK  141  A    between atoms: _312  and  _314
REMARK  142  A    between atoms: _314  and  _315
REMARK  143  A    between atoms: _314  and  _317
REMARK  144  A    between atoms: _317  and  _318
REMARK  145  A    between atoms: _323  and  _324
REMARK  146  A    between atoms: _326  and  _328
REMARK  147  A    between atoms: _328  and  _329
REMARK  148  A    between atoms: _328  and  _331
REMARK  149  A    between atoms: _335  and  _336
REMARK  150  A    between atoms: _341  and  _343
REMARK  151  A    between atoms: _343  and  _344
REMARK  152  A    between atoms: _346  and  _348
REMARK  153  A    between atoms: _348  and  _349
REMARK  154  A    between atoms: _351  and  _353
REMARK  155  A    between atoms: _353  and  _354
REMARK  156  A    between atoms: _353  and  _356
REMARK  157  A    between atoms: _356  and  _357
REMARK  158  A    between atoms: _357  and  _358
REMARK  159  A    between atoms: _361  and  _363
REMARK  160  A    between atoms: _363  and  _364
REMARK  161  A    between atoms: _363  and  _366
REMARK  162  A    between atoms: _366  and  _367
REMARK  163  A    between atoms: _367  and  _368
REMARK  164  A    between atoms: _370  and  _372
REMARK  165  A    between atoms: _372  and  _373
REMARK  166  A    between atoms: _372  and  _375
REMARK  167  A    between atoms: _375  and  _376
REMARK  168  A    between atoms: _382  and  _384
REMARK  169  A    between atoms: _384  and  _385
REMARK  170  A    between atoms: _384  and  _387
REMARK  171  A    between atoms: _387  and  _388
REMARK  172  A    between atoms: _390  and  _392
REMARK  173  A    between atoms: _392  and  _393
REMARK  174  A    between atoms: _392  and  _395
REMARK  175  A    between atoms: _395  and  _396
REMARK  176  A    between atoms: _401  and  _402
REMARK  177  A    between atoms: _404  and  _406
REMARK  178  A    between atoms: _406  and  _407
REMARK  179  A    between atoms: _406  and  _409
REMARK  180  A    between atoms: _409  and  _410
REMARK  181  A    between atoms: _410  and  _411
REMARK  182  A    between atoms: _411  and  _412
REMARK  183  A    between atoms: _421  and  _423
REMARK  184  A    between atoms: _423  and  _424
REMARK  185  A    between atoms: _423  and  _426
REMARK  186  A    between atoms: _426  and  _427
REMARK  187  A    between atoms: _430  and  _432
REMARK  188  A    between atoms: _432  and  _433
REMARK  189  A    between atoms: _432  and  _435
REMARK  190  A    between atoms: _435  and  _436
REMARK  191  A    between atoms: _439  and  _441
REMARK  192  A    between atoms: _441  and  _442
REMARK  193  A    between atoms: _441  and  _444
REMARK  194  A    between atoms: _444  and  _445
REMARK  195  A    between atoms: _445  and  _446
REMARK  196  A    between atoms: _446  and  _447
REMARK  197  A    between atoms: _447  and  _448
REMARK  198  A    between atoms: _453  and  _454
REMARK  199  A    between atoms: _459  and  _461
REMARK  200  A    between atoms: _461  and  _462
REMARK  201  A    between atoms: _461  and  _464
REMARK  202  A    between atoms: _464  and  _465
REMARK  203  A    between atoms: _465  and  _466
REMARK  204  A    between atoms: _469  and  _471
REMARK  205  A    between atoms: _471  and  _472
REMARK  206  A    between atoms: _471  and  _474
REMARK  207  A    between atoms: _474  and  _475
REMARK  208  A    between atoms: _480  and  _482
REMARK  209  A    between atoms: _482  and  _483
REMARK  210  A    between atoms: _482  and  _485
REMARK  211  A    between atoms: _485  and  _486
REMARK  212  A    between atoms: _489  and  _491
REMARK  213  A    between atoms: _491  and  _492
REMARK  214  A    between atoms: _491  and  _494
REMARK  215  A    between atoms: _494  and  _495
REMARK  216  A    between atoms: _498  and  _500
REMARK  217  A    between atoms: _500  and  _501
REMARK  218  A    between atoms: _500  and  _503
REMARK  219  A    between atoms: _503  and  _504
REMARK  220  A    between atoms: _507  and  _509
REMARK  221  A    between atoms: _509  and  _510
REMARK  222  A    between atoms: _509  and  _512
REMARK  223  A    between atoms: _512  and  _513
REMARK  224  A    between atoms: _513  and  _514
REMARK  225  A    between atoms: _519  and  _521
REMARK  226  A    between atoms: _521  and  _522
REMARK  227  A    between atoms: _521  and  _524
REMARK  228  A    between atoms: _527  and  _529
REMARK  229  A    between atoms: _529  and  _530
REMARK  230  A    between atoms: _529  and  _532
REMARK  231  A    between atoms: _532  and  _533
REMARK  232  A    between atoms: _536  and  _538
REMARK  233  A    between atoms: _538  and  _539
REMARK  234  A    between atoms: _538  and  _541
REMARK  235  A    between atoms: _541  and  _542
REMARK  236  A    between atoms: _545  and  _547
REMARK  237  A    between atoms: _547  and  _548
REMARK  238  A    between atoms: _547  and  _550
REMARK  239  A    between atoms: _550  and  _551
REMARK  240  A    between atoms: _557  and  _559
REMARK  241  A    between atoms: _559  and  _560
REMARK  242  A    between atoms: _562  and  _564
REMARK  243  A    between atoms: _564  and  _565
REMARK  244  A    between atoms: _564  and  _567
REMARK  245  A    between atoms: _567  and  _568
REMARK  246  A    between atoms: _574  and  _576
REMARK  247  A    between atoms: _576  and  _577
REMARK  248  A    between atoms: _576  and  _579
REMARK  249  A    between atoms: _581  and  _583
REMARK  250  A    between atoms: _583  and  _584
REMARK  251  A    between atoms: _586  and  _588
REMARK  252  A    between atoms: _588  and  _589
REMARK  253  A    between atoms: _588  and  _591
REMARK  254  A    between atoms: _591  and  _592
REMARK  255  A    between atoms: _596  and  _597
REMARK  256  A    between atoms: _602  and  _604
REMARK  257  A    between atoms: _604  and  _605
REMARK  258  A    between atoms: _604  and  _607
REMARK  259  A    between atoms: _607  and  _608
REMARK  260  A    between atoms: _613  and  _614
REMARK  261  A    between atoms: _616  and  _618
REMARK  262  A    between atoms: _618  and  _619
REMARK  263  A    between atoms: _618  and  _621
REMARK  264  A    between atoms: _621  and  _622
REMARK  265  A    between atoms: _625  and  _627
REMARK  266  A    between atoms: _627  and  _628
REMARK  267  A    between atoms: _627  and  _630
REMARK  268  A    between atoms: _630  and  _631
REMARK  269  A    between atoms: _636  and  _638
REMARK  270  A    between atoms: _638  and  _639
REMARK  271  A    between atoms: _638  and  _641
REMARK  272  A    between atoms: _641  and  _642
REMARK  273  A    between atoms: _648  and  _650
REMARK  274  A    between atoms: _650  and  _651
REMARK  275  A    between atoms: _650  and  _653
REMARK  276  A    between atoms: _653  and  _654
REMARK  277  A    between atoms: _657  and  _659
REMARK  278  A    between atoms: _659  and  _660
REMARK  279  A    between atoms: _659  and  _662
REMARK  280  A    between atoms: _662  and  _663
REMARK  281  A    between atoms: _668  and  _669
REMARK  282  A    between atoms: _671  and  _673
REMARK  283  A    between atoms: _673  and  _674
REMARK  284  A    between atoms: _673  and  _676
REMARK  285  A    between atoms: _676  and  _677
REMARK  286  A    between atoms: _677  and  _678
REMARK                            x       y       z     vdW  Elec       q    Type
REMARK                         _______ _______ _______ _____ _____    ______ ____
ROOT
ATOM      1  O   HOH     1      33.046  19.089  20.492  0.00  0.00    +0.000 OA
ENDROOT
TORSDOF 0
REMARK  Name = ../refined-set-2016/3bwj/3bwj_pocket.pdb
REMARK  286 active torsions:
REMARK  status: ('A' for Active; 'I' for Inactive)
REMARK    1  A    between atoms: _1  and  _3
REMARK    2  A    between atoms: _3  and  _4
REMARK    3  A    between atoms: _3  and  _6
REMARK    4  A    between atoms: _6  and  _7
REMARK    5  A    between atoms: _10  and  _12
REMARK    6  A    between atoms: _12  and  _13
REMARK    7  A    between atoms: _12  and  _15
REMARK    8  A    between atoms: _15  and  _16
REMARK    9  A    between atoms: _19  and  _21
REMARK   10  A    between atoms: _21  and  _22
REMARK   11  A    between atoms: _24  and  _26
REMARK   12  A    between atoms: _26  and  _27
REMARK   13  A    between atoms: _26  and  _29
REMARK   14  A    between atoms: _29  and  _30
REMARK   15  A    between atoms: _33  and  _35
REMARK   16  A    between atoms: _35  and  _36
REMARK   17  A    between atoms: _38  and  _40
REMARK   18  A    between atoms: _40  and  _41
REMARK   19  A    between atoms: _40  and  _43
REMARK   20  A    between atoms: _43  and  _44
REMARK   21  A    between atoms: _46  and  _48
REMARK   22  A    between atoms: _48  and  _49
REMARK   23  A    between atoms: _48  and  _51
REMARK   24  A    between atoms: _51  and  _52
REMARK   25  A    between atoms: _58  and  _60
REMARK   26  A    between atoms: _60  and  _61
REMARK   27  A    between atoms: _63  and  _65
REMARK   28  A    between atoms: _65  and  _66
REMARK   29  A    between atoms: _65  and  _68
REMARK   30  A    between atoms: _68  and  _69
REMARK   31  A    between atoms: _69  and  _70
REMARK   32  A    between atoms: _70  and  _71
REMARK   33  A    between atoms: _80  and  _82
REMARK   34  A    between atoms: _82  and  _83
REMARK   35  A    between atoms: _82  and  _85
REMARK   36  A    between atoms: _88  and  _90
REMARK   37  A    between atoms: _90  and  _91
REMARK   38  A    between atoms: _90  and  _93
REMARK   39  A    between atoms: _93  and  _94
REMARK   40  A    between atoms: _94  and  _95
REMARK   41  A    between atoms: _97  and  _99
REMARK   42  A    between atoms: _99  and  _100
REMARK   43  A    between atoms: _99  and  _102
REMARK   44  A    between atoms: _102  and  _103
REMARK   45  A    between atoms: _106  and  _108
REMARK   46  A    between atoms: _108  and  _109
REMARK   47  A    between atoms: _108  and  _111
REMARK   48  A    between atoms: _111  and  _112
REMARK   49  A    between atoms: _117  and  _118
REMARK   50  A    between atoms: _120  and  _122
REMARK   51  A    between atoms: _122  and  _123
REMARK   52  A    between atoms: _126  and  _128
REMARK   53  A    between atoms: _128  and  _129
REMARK   54  A    between atoms: _128  and  _131
REMARK   55  A    between atoms: _131  and  _132
REMARK   56  A    between atoms: _132  and  _133
REMARK   57  A    between atoms: _135  and  _137
REMARK   58  A    between atoms: _137  and  _138
REMARK   59  A    between atoms: _137  and  _140
REMARK   60  A    between atoms: _140  and  _141
REMARK   61  A    between atoms: _141  and  _142
REMARK   62  A    between atoms: _142  and  _143
REMARK   63  A    between atoms: _143  and  _144
REMARK   64  A    between atoms: _148  and  _150
REMARK   65  A    between atoms: _150  and  _151
REMARK   66  A    between atoms: _150  and  _153
REMARK   67  A    between atoms: _153  and  _154
REMARK   68  A    between atoms: _157  and  _159
REMARK   69  A    between atoms: _159  and  _160
REMARK   70  A    between atoms: _159  and  _162
REMARK   71  A    between atoms: _162  and  _163
REMARK   72  A    between atoms: _166  and  _168
REMARK   73  A    between atoms: _168  and  _169
REMARK   74  A    between atoms: _168  and  _171
REMARK   75  A    between atoms: _171  and  _172
REMARK   76  A    between atoms: _175  and  _177
REMARK   77  A    between atoms: _177  and  _178
REMARK   78  A    between atoms: _177  and  _180
REMARK   79  A    between atoms: _180  and  _181
REMARK   80  A    between atoms: _181  and  _182
REMARK   81  A    between atoms: _182  and  _183
REMARK   82  A    between atoms: _183  and  _184
REMARK   83  A    between atoms: _188  and  _190
REMARK   84  A    between atoms: _190  and  _191
REMARK   85  A    between atoms: _190  and  _193
REMARK   86  A    between atoms: _196  and  _198
REMARK   87  A    between atoms: _198  and  _199
REMARK   88  A    between atoms: _198  and  _201
REMARK   89  A    between atoms: _201  and  _202
REMARK   90  A    between atoms: _205  and  _207
REMARK   91  A    between atoms: _207  and  _208
REMARK   92  A    between atoms: _207  and  _210
REMARK   93  A    between atoms: _210  and  _211
REMARK   94  A    between atoms: _211  and  _212
REMARK   95  A    between atoms: _217  and  _219
REMARK   96  A    between atoms: _219  and  _220
REMARK   97  A    between atoms: _219  and  _222
REMARK   98  A    between atoms: _222  and  _223
REMARK   99  A    between atoms: _226  and  _228
REMARK  100  A    between atoms: _228  and  _229
REMARK  101  A    between atoms: _228  and  _231
REMARK  102  A    between atoms: _231  and  _232
REMARK  103  A    between atoms: _232  and  _233
REMARK  104  A    between atoms: _236  and  _238
REMARK  105  A    between atoms: _238  and  _239
REMARK  106  A    between atoms: _238  and  _241
REMARK  107  A    between atoms: _244  and  _246
REMARK  108  A    between atoms: _246  and  _247
REMARK  109  A    between atoms: _246  and  _249
REMARK  110  A    between atoms: _249  and  _250
REMARK  111  A    between atoms: _250  and  _251
REMARK  112  A    between atoms: _251  and  _252
REMARK  113  A    between atoms: _252  and  _253
REMARK  114  A    between atoms: _257  and  _259
REMARK  115  A    between atoms: _259  and  _260
REMARK  116  A    between atoms: _259  and  _262
REMARK  117  A    between atoms: _262  and  _263
REMARK  118  A    between atoms: _266  and  _268
REMARK  119  A    between atoms: _268  and  _269
REMARK  120  A    between atoms: _268  and  _271
REMARK  121  A    between atoms: _271  and  _272
REMARK  122  A    between atoms: _272  and  _273
REMARK  123  A    between atoms: _276  and  _278
REMARK  124  A    between atoms: _278  and  _279
REMARK  125  A    between atoms: _278  and  _281
REMARK  126  A    between atoms: _281  and  _282
REMARK  127  A    between atoms: _282  and  _283
REMARK  128  A    between atoms: _285  and  _287
REMARK  129  A    between atoms: _287  and  _288
REMARK  130  A    between atoms: _287  and  _290
REMARK  131  A    between atoms: _293  and  _295
REMARK  132  A    between atoms: _295  and  _296
REMARK  133  A    between atoms: _295  and  _298
REMARK  134  A    between atoms: _298  and  _299
REMARK  135  A    between atoms: _299  and  _300
REMARK  136  A    between atoms: _302  and  _304
REMARK  137  A    between atoms: _304  and  _305
REMARK  138  A    between atoms: _304  and  _307
REMARK  139  A    between atoms: _307  and  _308
REMARK  140  A    between atoms: _308  and  _309
REMARK  141  A    between atoms: _312  and  _314
REMARK  142  A    between atoms: _314  and  _315
REMARK  143  A    between atoms: _314  and  _317
REMARK  144  A    between atoms: _317  and  _318
REMARK  145  A    between atoms: _323  and  _324
REMARK  146  A    between atoms: _326  and  _328
REMARK  147  A    between atoms: _328  and  _329
REMARK  148  A    between atoms: _328  and  _331
REMARK  149  A    between atoms: _335  and  _336
REMARK  150  A    between atoms: _341  and  _343
REMARK  151  A    between atoms: _343  and  _344
REMARK  152  A    between atoms: _346  and  _348
REMARK  153  A    between atoms: _348  and  _349
REMARK  154  A    between atoms: _351  and  _353
REMARK  155  A    between atoms: _353  and  _354
REMARK  156  A    between atoms: _353  and  _356
REMARK  157  A    between atoms: _356  and  _357
REMARK  158  A    between atoms: _357  and  _358
REMARK  159  A    between atoms: _361  and  _363
REMARK  160  A    between atoms: _363  and  _364
REMARK  161  A    between atoms: _363  and  _366
REMARK  162  A    between atoms: _366  and  _367
REMARK  163  A    between atoms: _367  and  _368
REMARK  164  A    between atoms: _370  and  _372
REMARK  165  A    between atoms: _372  and  _373
REMARK  166  A    between atoms: _372  and  _375
REMARK  167  A    between atoms: _375  and  _376
REMARK  168  A    between atoms: _382  and  _384
REMARK  169  A    between atoms: _384  and  _385
REMARK  170  A    between atoms: _384  and  _387
REMARK  171  A    between atoms: _387  and  _388
REMARK  172  A    between atoms: _390  and  _392
REMARK  173  A    between atoms: _392  and  _393
REMARK  174  A    between atoms: _392  and  _395
REMARK  175  A    between atoms: _395  and  _396
REMARK  176  A    between atoms: _401  and  _402
REMARK  177  A    between atoms: _404  and  _406
REMARK  178  A    between atoms: _406  and  _407
REMARK  179  A    between atoms: _406  and  _409
REMARK  180  A    between atoms: _409  and  _410
REMARK  181  A    between atoms: _410  and  _411
REMARK  182  A    between atoms: _411  and  _412
REMARK  183  A    between atoms: _421  and  _423
REMARK  184  A    between atoms: _423  and  _424
REMARK  185  A    between atoms: _423  and  _426
REMARK  186  A    between atoms: _426  and  _427
REMARK  187  A    between atoms: _430  and  _432
REMARK  188  A    between atoms: _432  and  _433
REMARK  189  A    between atoms: _432  and  _435
REMARK  190  A    between atoms: _435  and  _436
REMARK  191  A    between atoms: _439  and  _441
REMARK  192  A    between atoms: _441  and  _442
REMARK  193  A    between atoms: _441  and  _444
REMARK  194  A    between atoms: _444  and  _445
REMARK  195  A    between atoms: _445  and  _446
REMARK  196  A    between atoms: _446  and  _447
REMARK  197  A    between atoms: _447  and  _448
REMARK  198  A    between atoms: _453  and  _454
REMARK  199  A    between atoms: _459  and  _461
REMARK  200  A    between atoms: _461  and  _462
REMARK  201  A    between atoms: _461  and  _464
REMARK  202  A    between atoms: _464  and  _465
REMARK  203  A    between atoms: _465  and  _466
REMARK  204  A    between atoms: _469  and  _471
REMARK  205  A    between atoms: _471  and  _472
REMARK  206  A    between atoms: _471  and  _474
REMARK  207  A    between atoms: _474  and  _475
REMARK  208  A    between atoms: _480  and  _482
REMARK  209  A    between atoms: _482  and  _483
REMARK  210  A    between atoms: _482  and  _485
REMARK  211  A    between atoms: _485  and  _486
REMARK  212  A    between atoms: _489  and  _491
REMARK  213  A    between atoms: _491  and  _492
REMARK  214  A    between atoms: _491  and  _494
REMARK  215  A    between atoms: _494  and  _495
REMARK  216  A    between atoms: _498  and  _500
REMARK  217  A    between atoms: _500  and  _501
REMARK  218  A    between atoms: _500  and  _503
REMARK  219  A    between atoms: _503  and  _504
REMARK  220  A    between atoms: _507  and  _509
REMARK  221  A    between atoms: _509  and  _510
REMARK  222  A    between atoms: _509  and  _512
REMARK  223  A    between atoms: _512  and  _513
REMARK  224  A    between atoms: _513  and  _514
REMARK  225  A    between atoms: _519  and  _521
REMARK  226  A    between atoms: _521  and  _522
REMARK  227  A    between atoms: _521  and  _524
REMARK  228  A    between atoms: _527  and  _529
REMARK  229  A    between atoms: _529  and  _530
REMARK  230  A    between atoms: _529  and  _532
REMARK  231  A    between atoms: _532  and  _533
REMARK  232  A    between atoms: _536  and  _538
REMARK  233  A    between atoms: _538  and  _539
REMARK  234  A    between atoms: _538  and  _541
REMARK  235  A    between atoms: _541  and  _542
REMARK  236  A    between atoms: _545  and  _547
REMARK  237  A    between atoms: _547  and  _548
REMARK  238  A    between atoms: _547  and  _550
REMARK  239  A    between atoms: _550  and  _551
REMARK  240  A    between atoms: _557  and  _559
REMARK  241  A    between atoms: _559  and  _560
REMARK  242  A    between atoms: _562  and  _564
REMARK  243  A    between atoms: _564  and  _565
REMARK  244  A    between atoms: _564  and  _567
REMARK  245  A    between atoms: _567  and  _568
REMARK  246  A    between atoms: _574  and  _576
REMARK  247  A    between atoms: _576  and  _577
REMARK  248  A    between atoms: _576  and  _579
REMARK  249  A    between atoms: _581  and  _583
REMARK  250  A    between atoms: _583  and  _584
REMARK  251  A    between atoms: _586  and  _588
REMARK  252  A    between atoms: _588  and  _589
REMARK  253  A    between atoms: _588  and  _591
REMARK  254  A    between atoms: _591  and  _592
REMARK  255  A    between atoms: _596  and  _597
REMARK  256  A    between atoms: _602  and  _604
REMARK  257  A    between atoms: _604  and  _605
REMARK  258  A    between atoms: _604  and  _607
REMARK  259  A    between atoms: _607  and  _608
REMARK  260  A    between atoms: _613  and  _614
REMARK  261  A    between atoms: _616  and  _618
REMARK  262  A    between atoms: _618  and  _619
REMARK  263  A    between atoms: _618  and  _621
REMARK  264  A    between atoms: _621  and  _622
REMARK  265  A    between atoms: _625  and  _627
REMARK  266  A    between atoms: _627  and  _628
REMARK  267  A    between atoms: _627  and  _630
REMARK  268  A    between atoms: _630  and  _631
REMARK  269  A    between atoms: _636  and  _638
REMARK  270  A    between atoms: _638  and  _639
REMARK  271  A    between atoms: _638  and  _641
REMARK  272  A    between atoms: _641  and  _642
REMARK  273  A    between atoms: _648  and  _650
REMARK  274  A    between atoms: _650  and  _651
REMARK  275  A    between atoms: _650  and  _653
REMARK  276  A    between atoms: _653  and  _654
REMARK  277  A    between atoms: _657  and  _659
REMARK  278  A    between atoms: _659  and  _660
REMARK  279  A    between atoms: _659  and  _662
REMARK  280  A    between atoms: _662  and  _663
REMARK  281  A    between atoms: _668  and  _669
REMARK  282  A    between atoms: _671  and  _673
REMARK  283  A    between atoms: _673  and  _674
REMARK  284  A    between atoms: _673  and  _676
REMARK  285  A    between atoms: _676  and  _677
REMARK  286  A    between atoms: _677  and  _678
REMARK                            x       y       z     vdW  Elec       q    Type
REMARK                         _______ _______ _______ _____ _____    ______ ____
ROOT
ATOM      1  O   HOH     1      33.663  25.715   9.607  0.00  0.00    +0.000 OA
ENDROOT
TORSDOF 0
REMARK  Name = ../refined-set-2016/3bwj/3bwj_pocket.pdb
REMARK  286 active torsions:
REMARK  status: ('A' for Active; 'I' for Inactive)
REMARK    1  A    between atoms: _1  and  _3
REMARK    2  A    between atoms: _3  and  _4
REMARK    3  A    between atoms: _3  and  _6
REMARK    4  A    between atoms: _6  and  _7
REMARK    5  A    between atoms: _10  and  _12
REMARK    6  A    between atoms: _12  and  _13
REMARK    7  A    between atoms: _12  and  _15
REMARK    8  A    between atoms: _15  and  _16
REMARK    9  A    between atoms: _19  and  _21
REMARK   10  A    between atoms: _21  and  _22
REMARK   11  A    between atoms: _24  and  _26
REMARK   12  A    between atoms: _26  and  _27
REMARK   13  A    between atoms: _26  and  _29
REMARK   14  A    between atoms: _29  and  _30
REMARK   15  A    between atoms: _33  and  _35
REMARK   16  A    between atoms: _35  and  _36
REMARK   17  A    between atoms: _38  and  _40
REMARK   18  A    between atoms: _40  and  _41
REMARK   19  A    between atoms: _40  and  _43
REMARK   20  A    between atoms: _43  and  _44
REMARK   21  A    between atoms: _46  and  _48
REMARK   22  A    between atoms: _48  and  _49
REMARK   23  A    between atoms: _48  and  _51
REMARK   24  A    between atoms: _51  and  _52
REMARK   25  A    between atoms: _58  and  _60
REMARK   26  A    between atoms: _60  and  _61
REMARK   27  A    between atoms: _63  and  _65
REMARK   28  A    between atoms: _65  and  _66
REMARK   29  A    between atoms: _65  and  _68
REMARK   30  A    between atoms: _68  and  _69
REMARK   31  A    between atoms: _69  and  _70
REMARK   32  A    between atoms: _70  and  _71
REMARK   33  A    between atoms: _80  and  _82
REMARK   34  A    between atoms: _82  and  _83
REMARK   35  A    between atoms: _82  and  _85
REMARK   36  A    between atoms: _88  and  _90
REMARK   37  A    between atoms: _90  and  _91
REMARK   38  A    between atoms: _90  and  _93
REMARK   39  A    between atoms: _93  and  _94
REMARK   40  A    between atoms: _94  and  _95
REMARK   41  A    between atoms: _97  and  _99
REMARK   42  A    between atoms: _99  and  _100
REMARK   43  A    between atoms: _99  and  _102
REMARK   44  A    between atoms: _102  and  _103
REMARK   45  A    between atoms: _106  and  _108
REMARK   46  A    between atoms: _108  and  _109
REMARK   47  A    between atoms: _108  and  _111
REMARK   48  A    between atoms: _111  and  _112
REMARK   49  A    between atoms: _117  and  _118
REMARK   50  A    between atoms: _120  and  _122
REMARK   51  A    between atoms: _122  and  _123
REMARK   52  A    between atoms: _126  and  _128
REMARK   53  A    between atoms: _128  and  _129
REMARK   54  A    between atoms: _128  and  _131
REMARK   55  A    between atoms: _131  and  _132
REMARK   56  A    between atoms: _132  and  _133
REMARK   57  A    between atoms: _135  and  _137
REMARK   58  A    between atoms: _137  and  _138
REMARK   59  A    between atoms: _137  and  _140
REMARK   60  A    between atoms: _140  and  _141
REMARK   61  A    between atoms: _141  and  _142
REMARK   62  A    between atoms: _142  and  _143
REMARK   63  A    between atoms: _143  and  _144
REMARK   64  A    between atoms: _148  and  _150
REMARK   65  A    between atoms: _150  and  _151
REMARK   66  A    between atoms: _150  and  _153
REMARK   67  A    between atoms: _153  and  _154
REMARK   68  A    between atoms: _157  and  _159
REMARK   69  A    between atoms: _159  and  _160
REMARK   70  A    between atoms: _159  and  _162
REMARK   71  A    between atoms: _162  and  _163
REMARK   72  A    between atoms: _166  and  _168
REMARK   73  A    between atoms: _168  and  _169
REMARK   74  A    between atoms: _168  and  _171
REMARK   75  A    between atoms: _171  and  _172
REMARK   76  A    between atoms: _175  and  _177
REMARK   77  A    between atoms: _177  and  _178
REMARK   78  A    between atoms: _177  and  _180
REMARK   79  A    between atoms: _180  and  _181
REMARK   80  A    between atoms: _181  and  _182
REMARK   81  A    between atoms: _182  and  _183
REMARK   82  A    between atoms: _183  and  _184
REMARK   83  A    between atoms: _188  and  _190
REMARK   84  A    between atoms: _190  and  _191
REMARK   85  A    between atoms: _190  and  _193
REMARK   86  A    between atoms: _196  and  _198
REMARK   87  A    between atoms: _198  and  _199
REMARK   88  A    between atoms: _198  and  _201
REMARK   89  A    between atoms: _201  and  _202
REMARK   90  A    between atoms: _205  and  _207
REMARK   91  A    between atoms: _207  and  _208
REMARK   92  A    between atoms: _207  and  _210
REMARK   93  A    between atoms: _210  and  _211
REMARK   94  A    between atoms: _211  and  _212
REMARK   95  A    between atoms: _217  and  _219
REMARK   96  A    between atoms: _219  and  _220
REMARK   97  A    between atoms: _219  and  _222
REMARK   98  A    between atoms: _222  and  _223
REMARK   99  A    between atoms: _226  and  _228
REMARK  100  A    between atoms: _228  and  _229
REMARK  101  A    between atoms: _228  and  _231
REMARK  102  A    between atoms: _231  and  _232
REMARK  103  A    between atoms: _232  and  _233
REMARK  104  A    between atoms: _236  and  _238
REMARK  105  A    between atoms: _238  and  _239
REMARK  106  A    between atoms: _238  and  _241
REMARK  107  A    between atoms: _244  and  _246
REMARK  108  A    between atoms: _246  and  _247
REMARK  109  A    between atoms: _246  and  _249
REMARK  110  A    between atoms: _249  and  _250
REMARK  111  A    between atoms: _250  and  _251
REMARK  112  A    between atoms: _251  and  _252
REMARK  113  A    between atoms: _252  and  _253
REMARK  114  A    between atoms: _257  and  _259
REMARK  115  A    between atoms: _259  and  _260
REMARK  116  A    between atoms: _259  and  _262
REMARK  117  A    between atoms: _262  and  _263
REMARK  118  A    between atoms: _266  and  _268
REMARK  119  A    between atoms: _268  and  _269
REMARK  120  A    between atoms: _268  and  _271
REMARK  121  A    between atoms: _271  and  _272
REMARK  122  A    between atoms: _272  and  _273
REMARK  123  A    between atoms: _276  and  _278
REMARK  124  A    between atoms: _278  and  _279
REMARK  125  A    between atoms: _278  and  _281
REMARK  126  A    between atoms: _281  and  _282
REMARK  127  A    between atoms: _282  and  _283
REMARK  128  A    between atoms: _285  and  _287
REMARK  129  A    between atoms: _287  and  _288
REMARK  130  A    between atoms: _287  and  _290
REMARK  131  A    between atoms: _293  and  _295
REMARK  132  A    between atoms: _295  and  _296
REMARK  133  A    between atoms: _295  and  _298
REMARK  134  A    between atoms: _298  and  _299
REMARK  135  A    between atoms: _299  and  _300
REMARK  136  A    between atoms: _302  and  _304
REMARK  137  A    between atoms: _304  and  _305
REMARK  138  A    between atoms: _304  and  _307
REMARK  139  A    between atoms: _307  and  _308
REMARK  140  A    between atoms: _308  and  _309
REMARK  141  A    between atoms: _312  and  _314
REMARK  142  A    between atoms: _314  and  _315
REMARK  143  A    between atoms: _314  and  _317
REMARK  144  A    between atoms: _317  and  _318
REMARK  145  A    between atoms: _323  and  _324
REMARK  146  A    between atoms: _326  and  _328
REMARK  147  A    between atoms: _328  and  _329
REMARK  148  A    between atoms: _328  and  _331
REMARK  149  A    between atoms: _335  and  _336
REMARK  150  A    between atoms: _341  and  _343
REMARK  151  A    between atoms: _343  and  _344
REMARK  152  A    between atoms: _346  and  _348
REMARK  153  A    between atoms: _348  and  _349
REMARK  154  A    between atoms: _351  and  _353
REMARK  155  A    between atoms: _353  and  _354
REMARK  156  A    between atoms: _353  and  _356
REMARK  157  A    between atoms: _356  and  _357
REMARK  158  A    between atoms: _357  and  _358
REMARK  159  A    between atoms: _361  and  _363
REMARK  160  A    between atoms: _363  and  _364
REMARK  161  A    between atoms: _363  and  _366
REMARK  162  A    between atoms: _366  and  _367
REMARK  163  A    between atoms: _367  and  _368
REMARK  164  A    between atoms: _370  and  _372
REMARK  165  A    between atoms: _372  and  _373
REMARK  166  A    between atoms: _372  and  _375
REMARK  167  A    between atoms: _375  and  _376
REMARK  168  A    between atoms: _382  and  _384
REMARK  169  A    between atoms: _384  and  _385
REMARK  170  A    between atoms: _384  and  _387
REMARK  171  A    between atoms: _387  and  _388
REMARK  172  A    between atoms: _390  and  _392
REMARK  173  A    between atoms: _392  and  _393
REMARK  174  A    between atoms: _392  and  _395
REMARK  175  A    between atoms: _395  and  _396
REMARK  176  A    between atoms: _401  and  _402
REMARK  177  A    between atoms: _404  and  _406
REMARK  178  A    between atoms: _406  and  _407
REMARK  179  A    between atoms: _406  and  _409
REMARK  180  A    between atoms: _409  and  _410
REMARK  181  A    between atoms: _410  and  _411
REMARK  182  A    between atoms: _411  and  _412
REMARK  183  A    between atoms: _421  and  _423
REMARK  184  A    between atoms: _423  and  _424
REMARK  185  A    between atoms: _423  and  _426
REMARK  186  A    between atoms: _426  and  _427
REMARK  187  A    between atoms: _430  and  _432
REMARK  188  A    between atoms: _432  and  _433
REMARK  189  A    between atoms: _432  and  _435
REMARK  190  A    between atoms: _435  and  _436
REMARK  191  A    between atoms: _439  and  _441
REMARK  192  A    between atoms: _441  and  _442
REMARK  193  A    between atoms: _441  and  _444
REMARK  194  A    between atoms: _444  and  _445
REMARK  195  A    between atoms: _445  and  _446
REMARK  196  A    between atoms: _446  and  _447
REMARK  197  A    between atoms: _447  and  _448
REMARK  198  A    between atoms: _453  and  _454
REMARK  199  A    between atoms: _459  and  _461
REMARK  200  A    between atoms: _461  and  _462
REMARK  201  A    between atoms: _461  and  _464
REMARK  202  A    between atoms: _464  and  _465
REMARK  203  A    between atoms: _465  and  _466
REMARK  204  A    between atoms: _469  and  _471
REMARK  205  A    between atoms: _471  and  _472
REMARK  206  A    between atoms: _471  and  _474
REMARK  207  A    between atoms: _474  and  _475
REMARK  208  A    between atoms: _480  and  _482
REMARK  209  A    between atoms: _482  and  _483
REMARK  210  A    between atoms: _482  and  _485
REMARK  211  A    between atoms: _485  and  _486
REMARK  212  A    between atoms: _489  and  _491
REMARK  213  A    between atoms: _491  and  _492
REMARK  214  A    between atoms: _491  and  _494
REMARK  215  A    between atoms: _494  and  _495
REMARK  216  A    between atoms: _498  and  _500
REMARK  217  A    between atoms: _500  and  _501
REMARK  218  A    between atoms: _500  and  _503
REMARK  219  A    between atoms: _503  and  _504
REMARK  220  A    between atoms: _507  and  _509
REMARK  221  A    between atoms: _509  and  _510
REMARK  222  A    between atoms: _509  and  _512
REMARK  223  A    between atoms: _512  and  _513
REMARK  224  A    between atoms: _513  and  _514
REMARK  225  A    between atoms: _519  and  _521
REMARK  226  A    between atoms: _521  and  _522
REMARK  227  A    between atoms: _521  and  _524
REMARK  228  A    between atoms: _527  and  _529
REMARK  229  A    between atoms: _529  and  _530
REMARK  230  A    between atoms: _529  and  _532
REMARK  231  A    between atoms: _532  and  _533
REMARK  232  A    between atoms: _536  and  _538
REMARK  233  A    between atoms: _538  and  _539
REMARK  234  A    between atoms: _538  and  _541
REMARK  235  A    between atoms: _541  and  _542
REMARK  236  A    between atoms: _545  and  _547
REMARK  237  A    between atoms: _547  and  _548
REMARK  238  A    between atoms: _547  and  _550
REMARK  239  A    between atoms: _550  and  _551
REMARK  240  A    between atoms: _557  and  _559
REMARK  241  A    between atoms: _559  and  _560
REMARK  242  A    between atoms: _562  and  _564
REMARK  243  A    between atoms: _564  and  _565
REMARK  244  A    between atoms: _564  and  _567
REMARK  245  A    between atoms: _567  and  _568
REMARK  246  A    between atoms: _574  and  _576
REMARK  247  A    between atoms: _576  and  _577
REMARK  248  A    between atoms: _576  and  _579
REMARK  249  A    between atoms: _581  and  _583
REMARK  250  A    between atoms: _583  and  _584
REMARK  251  A    between atoms: _586  and  _588
REMARK  252  A    between atoms: _588  and  _589
REMARK  253  A    between atoms: _588  and  _591
REMARK  254  A    between atoms: _591  and  _592
REMARK  255  A    between atoms: _596  and  _597
REMARK  256  A    between atoms: _602  and  _604
REMARK  257  A    between atoms: _604  and  _605
REMARK  258  A    between atoms: _604  and  _607
REMARK  259  A    between atoms: _607  and  _608
REMARK  260  A    between atoms: _613  and  _614
REMARK  261  A    between atoms: _616  and  _618
REMARK  262  A    between atoms: _618  and  _619
REMARK  263  A    between atoms: _618  and  _621
REMARK  264  A    between atoms: _621  and  _622
REMARK  265  A    between atoms: _625  and  _627
REMARK  266  A    between atoms: _627  and  _628
REMARK  267  A    between atoms: _627  and  _630
REMARK  268  A    between atoms: _630  and  _631
REMARK  269  A    between atoms: _636  and  _638
REMARK  270  A    between atoms: _638  and  _639
REMARK  271  A    between atoms: _638  and  _641
REMARK  272  A    between atoms: _641  and  _642
REMARK  273  A    between atoms: _648  and  _650
REMARK  274  A    between atoms: _650  and  _651
REMARK  275  A    between atoms: _650  and  _653
REMARK  276  A    between atoms: _653  and  _654
REMARK  277  A    between atoms: _657  and  _659
REMARK  278  A    between atoms: _659  and  _660
REMARK  279  A    between atoms: _659  and  _662
REMARK  280  A    between atoms: _662  and  _663
REMARK  281  A    between atoms: _668  and  _669
REMARK  282  A    between atoms: _671  and  _673
REMARK  283  A    between atoms: _673  and  _674
REMARK  284  A    between atoms: _673  and  _676
REMARK  285  A    between atoms: _676  and  _677
REMARK  286  A    between atoms: _677  and  _678
REMARK                            x       y       z     vdW  Elec       q    Type
REMARK                         _______ _______ _______ _____ _____    ______ ____
ROOT
ATOM      1  O   HOH     1      37.325  28.784  11.220  0.00  0.00    +0.000 OA
ENDROOT
TORSDOF 0
REMARK  Name = ../refined-set-2016/3bwj/3bwj_pocket.pdb
REMARK  286 active torsions:
REMARK  status: ('A' for Active; 'I' for Inactive)
REMARK    1  A    between atoms: _1  and  _3
REMARK    2  A    between atoms: _3  and  _4
REMARK    3  A    between atoms: _3  and  _6
REMARK    4  A    between atoms: _6  and  _7
REMARK    5  A    between atoms: _10  and  _12
REMARK    6  A    between atoms: _12  and  _13
REMARK    7  A    between atoms: _12  and  _15
REMARK    8  A    between atoms: _15  and  _16
REMARK    9  A    between atoms: _19  and  _21
REMARK   10  A    between atoms: _21  and  _22
REMARK   11  A    between atoms: _24  and  _26
REMARK   12  A    between atoms: _26  and  _27
REMARK   13  A    between atoms: _26  and  _29
REMARK   14  A    between atoms: _29  and  _30
REMARK   15  A    between atoms: _33  and  _35
REMARK   16  A    between atoms: _35  and  _36
REMARK   17  A    between atoms: _38  and  _40
REMARK   18  A    between atoms: _40  and  _41
REMARK   19  A    between atoms: _40  and  _43
REMARK   20  A    between atoms: _43  and  _44
REMARK   21  A    between atoms: _46  and  _48
REMARK   22  A    between atoms: _48  and  _49
REMARK   23  A    between atoms: _48  and  _51
REMARK   24  A    between atoms: _51  and  _52
REMARK   25  A    between atoms: _58  and  _60
REMARK   26  A    between atoms: _60  and  _61
REMARK   27  A    between atoms: _63  and  _65
REMARK   28  A    between atoms: _65  and  _66
REMARK   29  A    between atoms: _65  and  _68
REMARK   30  A    between atoms: _68  and  _69
REMARK   31  A    between atoms: _69  and  _70
REMARK   32  A    between atoms: _70  and  _71
REMARK   33  A    between atoms: _80  and  _82
REMARK   34  A    between atoms: _82  and  _83
REMARK   35  A    between atoms: _82  and  _85
REMARK   36  A    between atoms: _88  and  _90
REMARK   37  A    between atoms: _90  and  _91
REMARK   38  A    between atoms: _90  and  _93
REMARK   39  A    between atoms: _93  and  _94
REMARK   40  A    between atoms: _94  and  _95
REMARK   41  A    between atoms: _97  and  _99
REMARK   42  A    between atoms: _99  and  _100
REMARK   43  A    between atoms: _99  and  _102
REMARK   44  A    between atoms: _102  and  _103
REMARK   45  A    between atoms: _106  and  _108
REMARK   46  A    between atoms: _108  and  _109
REMARK   47  A    between atoms: _108  and  _111
REMARK   48  A    between atoms: _111  and  _112
REMARK   49  A    between atoms: _117  and  _118
REMARK   50  A    between atoms: _120  and  _122
REMARK   51  A    between atoms: _122  and  _123
REMARK   52  A    between atoms: _126  and  _128
REMARK   53  A    between atoms: _128  and  _129
REMARK   54  A    between atoms: _128  and  _131
REMARK   55  A    between atoms: _131  and  _132
REMARK   56  A    between atoms: _132  and  _133
REMARK   57  A    between atoms: _135  and  _137
REMARK   58  A    between atoms: _137  and  _138
REMARK   59  A    between atoms: _137  and  _140
REMARK   60  A    between atoms: _140  and  _141
REMARK   61  A    between atoms: _141  and  _142
REMARK   62  A    between atoms: _142  and  _143
REMARK   63  A    between atoms: _143  and  _144
REMARK   64  A    between atoms: _148  and  _150
REMARK   65  A    between atoms: _150  and  _151
REMARK   66  A    between atoms: _150  and  _153
REMARK   67  A    between atoms: _153  and  _154
REMARK   68  A    between atoms: _157  and  _159
REMARK   69  A    between atoms: _159  and  _160
REMARK   70  A    between atoms: _159  and  _162
REMARK   71  A    between atoms: _162  and  _163
REMARK   72  A    between atoms: _166  and  _168
REMARK   73  A    between atoms: _168  and  _169
REMARK   74  A    between atoms: _168  and  _171
REMARK   75  A    between atoms: _171  and  _172
REMARK   76  A    between atoms: _175  and  _177
REMARK   77  A    between atoms: _177  and  _178
REMARK   78  A    between atoms: _177  and  _180
REMARK   79  A    between atoms: _180  and  _181
REMARK   80  A    between atoms: _181  and  _182
REMARK   81  A    between atoms: _182  and  _183
REMARK   82  A    between atoms: _183  and  _184
REMARK   83  A    between atoms: _188  and  _190
REMARK   84  A    between atoms: _190  and  _191
REMARK   85  A    between atoms: _190  and  _193
REMARK   86  A    between atoms: _196  and  _198
REMARK   87  A    between atoms: _198  and  _199
REMARK   88  A    between atoms: _198  and  _201
REMARK   89  A    between atoms: _201  and  _202
REMARK   90  A    between atoms: _205  and  _207
REMARK   91  A    between atoms: _207  and  _208
REMARK   92  A    between atoms: _207  and  _210
REMARK   93  A    between atoms: _210  and  _211
REMARK   94  A    between atoms: _211  and  _212
REMARK   95  A    between atoms: _217  and  _219
REMARK   96  A    between atoms: _219  and  _220
REMARK   97  A    between atoms: _219  and  _222
REMARK   98  A    between atoms: _222  and  _223
REMARK   99  A    between atoms: _226  and  _228
REMARK  100  A    between atoms: _228  and  _229
REMARK  101  A    between atoms: _228  and  _231
REMARK  102  A    between atoms: _231  and  _232
REMARK  103  A    between atoms: _232  and  _233
REMARK  104  A    between atoms: _236  and  _238
REMARK  105  A    between atoms: _238  and  _239
REMARK  106  A    between atoms: _238  and  _241
REMARK  107  A    between atoms: _244  and  _246
REMARK  108  A    between atoms: _246  and  _247
REMARK  109  A    between atoms: _246  and  _249
REMARK  110  A    between atoms: _249  and  _250
REMARK  111  A    between atoms: _250  and  _251
REMARK  112  A    between atoms: _251  and  _252
REMARK  113  A    between atoms: _252  and  _253
REMARK  114  A    between atoms: _257  and  _259
REMARK  115  A    between atoms: _259  and  _260
REMARK  116  A    between atoms: _259  and  _262
REMARK  117  A    between atoms: _262  and  _263
REMARK  118  A    between atoms: _266  and  _268
REMARK  119  A    between atoms: _268  and  _269
REMARK  120  A    between atoms: _268  and  _271
REMARK  121  A    between atoms: _271  and  _272
REMARK  122  A    between atoms: _272  and  _273
REMARK  123  A    between atoms: _276  and  _278
REMARK  124  A    between atoms: _278  and  _279
REMARK  125  A    between atoms: _278  and  _281
REMARK  126  A    between atoms: _281  and  _282
REMARK  127  A    between atoms: _282  and  _283
REMARK  128  A    between atoms: _285  and  _287
REMARK  129  A    between atoms: _287  and  _288
REMARK  130  A    between atoms: _287  and  _290
REMARK  131  A    between atoms: _293  and  _295
REMARK  132  A    between atoms: _295  and  _296
REMARK  133  A    between atoms: _295  and  _298
REMARK  134  A    between atoms: _298  and  _299
REMARK  135  A    between atoms: _299  and  _300
REMARK  136  A    between atoms: _302  and  _304
REMARK  137  A    between atoms: _304  and  _305
REMARK  138  A    between atoms: _304  and  _307
REMARK  139  A    between atoms: _307  and  _308
REMARK  140  A    between atoms: _308  and  _309
REMARK  141  A    between atoms: _312  and  _314
REMARK  142  A    between atoms: _314  and  _315
REMARK  143  A    between atoms: _314  and  _317
REMARK  144  A    between atoms: _317  and  _318
REMARK  145  A    between atoms: _323  and  _324
REMARK  146  A    between atoms: _326  and  _328
REMARK  147  A    between atoms: _328  and  _329
REMARK  148  A    between atoms: _328  and  _331
REMARK  149  A    between atoms: _335  and  _336
REMARK  150  A    between atoms: _341  and  _343
REMARK  151  A    between atoms: _343  and  _344
REMARK  152  A    between atoms: _346  and  _348
REMARK  153  A    between atoms: _348  and  _349
REMARK  154  A    between atoms: _351  and  _353
REMARK  155  A    between atoms: _353  and  _354
REMARK  156  A    between atoms: _353  and  _356
REMARK  157  A    between atoms: _356  and  _357
REMARK  158  A    between atoms: _357  and  _358
REMARK  159  A    between atoms: _361  and  _363
REMARK  160  A    between atoms: _363  and  _364
REMARK  161  A    between atoms: _363  and  _366
REMARK  162  A    between atoms: _366  and  _367
REMARK  163  A    between atoms: _367  and  _368
REMARK  164  A    between atoms: _370  and  _372
REMARK  165  A    between atoms: _372  and  _373
REMARK  166  A    between atoms: _372  and  _375
REMARK  167  A    between atoms: _375  and  _376
REMARK  168  A    between atoms: _382  and  _384
REMARK  169  A    between atoms: _384  and  _385
REMARK  170  A    between atoms: _384  and  _387
REMARK  171  A    between atoms: _387  and  _388
REMARK  172  A    between atoms: _390  and  _392
REMARK  173  A    between atoms: _392  and  _393
REMARK  174  A    between atoms: _392  and  _395
REMARK  175  A    between atoms: _395  and  _396
REMARK  176  A    between atoms: _401  and  _402
REMARK  177  A    between atoms: _404  and  _406
REMARK  178  A    between atoms: _406  and  _407
REMARK  179  A    between atoms: _406  and  _409
REMARK  180  A    between atoms: _409  and  _410
REMARK  181  A    between atoms: _410  and  _411
REMARK  182  A    between atoms: _411  and  _412
REMARK  183  A    between atoms: _421  and  _423
REMARK  184  A    between atoms: _423  and  _424
REMARK  185  A    between atoms: _423  and  _426
REMARK  186  A    between atoms: _426  and  _427
REMARK  187  A    between atoms: _430  and  _432
REMARK  188  A    between atoms: _432  and  _433
REMARK  189  A    between atoms: _432  and  _435
REMARK  190  A    between atoms: _435  and  _436
REMARK  191  A    between atoms: _439  and  _441
REMARK  192  A    between atoms: _441  and  _442
REMARK  193  A    between atoms: _441  and  _444
REMARK  194  A    between atoms: _444  and  _445
REMARK  195  A    between atoms: _445  and  _446
REMARK  196  A    between atoms: _446  and  _447
REMARK  197  A    between atoms: _447  and  _448
REMARK  198  A    between atoms: _453  and  _454
REMARK  199  A    between atoms: _459  and  _461
REMARK  200  A    between atoms: _461  and  _462
REMARK  201  A    between atoms: _461  and  _464
REMARK  202  A    between atoms: _464  and  _465
REMARK  203  A    between atoms: _465  and  _466
REMARK  204  A    between atoms: _469  and  _471
REMARK  205  A    between atoms: _471  and  _472
REMARK  206  A    between atoms: _471  and  _474
REMARK  207  A    between atoms: _474  and  _475
REMARK  208  A    between atoms: _480  and  _482
REMARK  209  A    between atoms: _482  and  _483
REMARK  210  A    between atoms: _482  and  _485
REMARK  211  A    between atoms: _485  and  _486
REMARK  212  A    between atoms: _489  and  _491
REMARK  213  A    between atoms: _491  and  _492
REMARK  214  A    between atoms: _491  and  _494
REMARK  215  A    between atoms: _494  and  _495
REMARK  216  A    between atoms: _498  and  _500
REMARK  217  A    between atoms: _500  and  _501
REMARK  218  A    between atoms: _500  and  _503
REMARK  219  A    between atoms: _503  and  _504
REMARK  220  A    between atoms: _507  and  _509
REMARK  221  A    between atoms: _509  and  _510
REMARK  222  A    between atoms: _509  and  _512
REMARK  223  A    between atoms: _512  and  _513
REMARK  224  A    between atoms: _513  and  _514
REMARK  225  A    between atoms: _519  and  _521
REMARK  226  A    between atoms: _521  and  _522
REMARK  227  A    between atoms: _521  and  _524
REMARK  228  A    between atoms: _527  and  _529
REMARK  229  A    between atoms: _529  and  _530
REMARK  230  A    between atoms: _529  and  _532
REMARK  231  A    between atoms: _532  and  _533
REMARK  232  A    between atoms: _536  and  _538
REMARK  233  A    between atoms: _538  and  _539
REMARK  234  A    between atoms: _538  and  _541
REMARK  235  A    between atoms: _541  and  _542
REMARK  236  A    between atoms: _545  and  _547
REMARK  237  A    between atoms: _547  and  _548
REMARK  238  A    between atoms: _547  and  _550
REMARK  239  A    between atoms: _550  and  _551
REMARK  240  A    between atoms: _557  and  _559
REMARK  241  A    between atoms: _559  and  _560
REMARK  242  A    between atoms: _562  and  _564
REMARK  243  A    between atoms: _564  and  _565
REMARK  244  A    between atoms: _564  and  _567
REMARK  245  A    between atoms: _567  and  _568
REMARK  246  A    between atoms: _574  and  _576
REMARK  247  A    between atoms: _576  and  _577
REMARK  248  A    between atoms: _576  and  _579
REMARK  249  A    between atoms: _581  and  _583
REMARK  250  A    between atoms: _583  and  _584
REMARK  251  A    between atoms: _586  and  _588
REMARK  252  A    between atoms: _588  and  _589
REMARK  253  A    between atoms: _588  and  _591
REMARK  254  A    between atoms: _591  and  _592
REMARK  255  A    between atoms: _596  and  _597
REMARK  256  A    between atoms: _602  and  _604
REMARK  257  A    between atoms: _604  and  _605
REMARK  258  A    between atoms: _604  and  _607
REMARK  259  A    between atoms: _607  and  _608
REMARK  260  A    between atoms: _613  and  _614
REMARK  261  A    between atoms: _616  and  _618
REMARK  262  A    between atoms: _618  and  _619
REMARK  263  A    between atoms: _618  and  _621
REMARK  264  A    between atoms: _621  and  _622
REMARK  265  A    between atoms: _625  and  _627
REMARK  266  A    between atoms: _627  and  _628
REMARK  267  A    between atoms: _627  and  _630
REMARK  268  A    between atoms: _630  and  _631
REMARK  269  A    between atoms: _636  and  _638
REMARK  270  A    between atoms: _638  and  _639
REMARK  271  A    between atoms: _638  and  _641
REMARK  272  A    between atoms: _641  and  _642
REMARK  273  A    between atoms: _648  and  _650
REMARK  274  A    between atoms: _650  and  _651
REMARK  275  A    between atoms: _650  and  _653
REMARK  276  A    between atoms: _653  and  _654
REMARK  277  A    between atoms: _657  and  _659
REMARK  278  A    between atoms: _659  and  _660
REMARK  279  A    between atoms: _659  and  _662
REMARK  280  A    between atoms: _662  and  _663
REMARK  281  A    between atoms: _668  and  _669
REMARK  282  A    between atoms: _671  and  _673
REMARK  283  A    between atoms: _673  and  _674
REMARK  284  A    between atoms: _673  and  _676
REMARK  285  A    between atoms: _676  and  _677
REMARK  286  A    between atoms: _677  and  _678
REMARK                            x       y       z     vdW  Elec       q    Type
REMARK                         _______ _______ _______ _____ _____    ______ ____
ROOT
ATOM      1  O   HOH     1      16.323  21.867   9.247  0.00  0.00    +0.000 OA
ENDROOT
TORSDOF 0
REMARK  Name = ../refined-set-2016/3bwj/3bwj_pocket.pdb
REMARK  286 active torsions:
REMARK  status: ('A' for Active; 'I' for Inactive)
REMARK    1  A    between atoms: _1  and  _3
REMARK    2  A    between atoms: _3  and  _4
REMARK    3  A    between atoms: _3  and  _6
REMARK    4  A    between atoms: _6  and  _7
REMARK    5  A    between atoms: _10  and  _12
REMARK    6  A    between atoms: _12  and  _13
REMARK    7  A    between atoms: _12  and  _15
REMARK    8  A    between atoms: _15  and  _16
REMARK    9  A    between atoms: _19  and  _21
REMARK   10  A    between atoms: _21  and  _22
REMARK   11  A    between atoms: _24  and  _26
REMARK   12  A    between atoms: _26  and  _27
REMARK   13  A    between atoms: _26  and  _29
REMARK   14  A    between atoms: _29  and  _30
REMARK   15  A    between atoms: _33  and  _35
REMARK   16  A    between atoms: _35  and  _36
REMARK   17  A    between atoms: _38  and  _40
REMARK   18  A    between atoms: _40  and  _41
REMARK   19  A    between atoms: _40  and  _43
REMARK   20  A    between atoms: _43  and  _44
REMARK   21  A    between atoms: _46  and  _48
REMARK   22  A    between atoms: _48  and  _49
REMARK   23  A    between atoms: _48  and  _51
REMARK   24  A    between atoms: _51  and  _52
REMARK   25  A    between atoms: _58  and  _60
REMARK   26  A    between atoms: _60  and  _61
REMARK   27  A    between atoms: _63  and  _65
REMARK   28  A    between atoms: _65  and  _66
REMARK   29  A    between atoms: _65  and  _68
REMARK   30  A    between atoms: _68  and  _69
REMARK   31  A    between atoms: _69  and  _70
REMARK   32  A    between atoms: _70  and  _71
REMARK   33  A    between atoms: _80  and  _82
REMARK   34  A    between atoms: _82  and  _83
REMARK   35  A    between atoms: _82  and  _85
REMARK   36  A    between atoms: _88  and  _90
REMARK   37  A    between atoms: _90  and  _91
REMARK   38  A    between atoms: _90  and  _93
REMARK   39  A    between atoms: _93  and  _94
REMARK   40  A    between atoms: _94  and  _95
REMARK   41  A    between atoms: _97  and  _99
REMARK   42  A    between atoms: _99  and  _100
REMARK   43  A    between atoms: _99  and  _102
REMARK   44  A    between atoms: _102  and  _103
REMARK   45  A    between atoms: _106  and  _108
REMARK   46  A    between atoms: _108  and  _109
REMARK   47  A    between atoms: _108  and  _111
REMARK   48  A    between atoms: _111  and  _112
REMARK   49  A    between atoms: _117  and  _118
REMARK   50  A    between atoms: _120  and  _122
REMARK   51  A    between atoms: _122  and  _123
REMARK   52  A    between atoms: _126  and  _128
REMARK   53  A    between atoms: _128  and  _129
REMARK   54  A    between atoms: _128  and  _131
REMARK   55  A    between atoms: _131  and  _132
REMARK   56  A    between atoms: _132  and  _133
REMARK   57  A    between atoms: _135  and  _137
REMARK   58  A    between atoms: _137  and  _138
REMARK   59  A    between atoms: _137  and  _140
REMARK   60  A    between atoms: _140  and  _141
REMARK   61  A    between atoms: _141  and  _142
REMARK   62  A    between atoms: _142  and  _143
REMARK   63  A    between atoms: _143  and  _144
REMARK   64  A    between atoms: _148  and  _150
REMARK   65  A    between atoms: _150  and  _151
REMARK   66  A    between atoms: _150  and  _153
REMARK   67  A    between atoms: _153  and  _154
REMARK   68  A    between atoms: _157  and  _159
REMARK   69  A    between atoms: _159  and  _160
REMARK   70  A    between atoms: _159  and  _162
REMARK   71  A    between atoms: _162  and  _163
REMARK   72  A    between atoms: _166  and  _168
REMARK   73  A    between atoms: _168  and  _169
REMARK   74  A    between atoms: _168  and  _171
REMARK   75  A    between atoms: _171  and  _172
REMARK   76  A    between atoms: _175  and  _177
REMARK   77  A    between atoms: _177  and  _178
REMARK   78  A    between atoms: _177  and  _180
REMARK   79  A    between atoms: _180  and  _181
REMARK   80  A    between atoms: _181  and  _182
REMARK   81  A    between atoms: _182  and  _183
REMARK   82  A    between atoms: _183  and  _184
REMARK   83  A    between atoms: _188  and  _190
REMARK   84  A    between atoms: _190  and  _191
REMARK   85  A    between atoms: _190  and  _193
REMARK   86  A    between atoms: _196  and  _198
REMARK   87  A    between atoms: _198  and  _199
REMARK   88  A    between atoms: _198  and  _201
REMARK   89  A    between atoms: _201  and  _202
REMARK   90  A    between atoms: _205  and  _207
REMARK   91  A    between atoms: _207  and  _208
REMARK   92  A    between atoms: _207  and  _210
REMARK   93  A    between atoms: _210  and  _211
REMARK   94  A    between atoms: _211  and  _212
REMARK   95  A    between atoms: _217  and  _219
REMARK   96  A    between atoms: _219  and  _220
REMARK   97  A    between atoms: _219  and  _222
REMARK   98  A    between atoms: _222  and  _223
REMARK   99  A    between atoms: _226  and  _228
REMARK  100  A    between atoms: _228  and  _229
REMARK  101  A    between atoms: _228  and  _231
REMARK  102  A    between atoms: _231  and  _232
REMARK  103  A    between atoms: _232  and  _233
REMARK  104  A    between atoms: _236  and  _238
REMARK  105  A    between atoms: _238  and  _239
REMARK  106  A    between atoms: _238  and  _241
REMARK  107  A    between atoms: _244  and  _246
REMARK  108  A    between atoms: _246  and  _247
REMARK  109  A    between atoms: _246  and  _249
REMARK  110  A    between atoms: _249  and  _250
REMARK  111  A    between atoms: _250  and  _251
REMARK  112  A    between atoms: _251  and  _252
REMARK  113  A    between atoms: _252  and  _253
REMARK  114  A    between atoms: _257  and  _259
REMARK  115  A    between atoms: _259  and  _260
REMARK  116  A    between atoms: _259  and  _262
REMARK  117  A    between atoms: _262  and  _263
REMARK  118  A    between atoms: _266  and  _268
REMARK  119  A    between atoms: _268  and  _269
REMARK  120  A    between atoms: _268  and  _271
REMARK  121  A    between atoms: _271  and  _272
REMARK  122  A    between atoms: _272  and  _273
REMARK  123  A    between atoms: _276  and  _278
REMARK  124  A    between atoms: _278  and  _279
REMARK  125  A    between atoms: _278  and  _281
REMARK  126  A    between atoms: _281  and  _282
REMARK  127  A    between atoms: _282  and  _283
REMARK  128  A    between atoms: _285  and  _287
REMARK  129  A    between atoms: _287  and  _288
REMARK  130  A    between atoms: _287  and  _290
REMARK  131  A    between atoms: _293  and  _295
REMARK  132  A    between atoms: _295  and  _296
REMARK  133  A    between atoms: _295  and  _298
REMARK  134  A    between atoms: _298  and  _299
REMARK  135  A    between atoms: _299  and  _300
REMARK  136  A    between atoms: _302  and  _304
REMARK  137  A    between atoms: _304  and  _305
REMARK  138  A    between atoms: _304  and  _307
REMARK  139  A    between atoms: _307  and  _308
REMARK  140  A    between atoms: _308  and  _309
REMARK  141  A    between atoms: _312  and  _314
REMARK  142  A    between atoms: _314  and  _315
REMARK  143  A    between atoms: _314  and  _317
REMARK  144  A    between atoms: _317  and  _318
REMARK  145  A    between atoms: _323  and  _324
REMARK  146  A    between atoms: _326  and  _328
REMARK  147  A    between atoms: _328  and  _329
REMARK  148  A    between atoms: _328  and  _331
REMARK  149  A    between atoms: _335  and  _336
REMARK  150  A    between atoms: _341  and  _343
REMARK  151  A    between atoms: _343  and  _344
REMARK  152  A    between atoms: _346  and  _348
REMARK  153  A    between atoms: _348  and  _349
REMARK  154  A    between atoms: _351  and  _353
REMARK  155  A    between atoms: _353  and  _354
REMARK  156  A    between atoms: _353  and  _356
REMARK  157  A    between atoms: _356  and  _357
REMARK  158  A    between atoms: _357  and  _358
REMARK  159  A    between atoms: _361  and  _363
REMARK  160  A    between atoms: _363  and  _364
REMARK  161  A    between atoms: _363  and  _366
REMARK  162  A    between atoms: _366  and  _367
REMARK  163  A    between atoms: _367  and  _368
REMARK  164  A    between atoms: _370  and  _372
REMARK  165  A    between atoms: _372  and  _373
REMARK  166  A    between atoms: _372  and  _375
REMARK  167  A    between atoms: _375  and  _376
REMARK  168  A    between atoms: _382  and  _384
REMARK  169  A    between atoms: _384  and  _385
REMARK  170  A    between atoms: _384  and  _387
REMARK  171  A    between atoms: _387  and  _388
REMARK  172  A    between atoms: _390  and  _392
REMARK  173  A    between atoms: _392  and  _393
REMARK  174  A    between atoms: _392  and  _395
REMARK  175  A    between atoms: _395  and  _396
REMARK  176  A    between atoms: _401  and  _402
REMARK  177  A    between atoms: _404  and  _406
REMARK  178  A    between atoms: _406  and  _407
REMARK  179  A    between atoms: _406  and  _409
REMARK  180  A    between atoms: _409  and  _410
REMARK  181  A    between atoms: _410  and  _411
REMARK  182  A    between atoms: _411  and  _412
REMARK  183  A    between atoms: _421  and  _423
REMARK  184  A    between atoms: _423  and  _424
REMARK  185  A    between atoms: _423  and  _426
REMARK  186  A    between atoms: _426  and  _427
REMARK  187  A    between atoms: _430  and  _432
REMARK  188  A    between atoms: _432  and  _433
REMARK  189  A    between atoms: _432  and  _435
REMARK  190  A    between atoms: _435  and  _436
REMARK  191  A    between atoms: _439  and  _441
REMARK  192  A    between atoms: _441  and  _442
REMARK  193  A    between atoms: _441  and  _444
REMARK  194  A    between atoms: _444  and  _445
REMARK  195  A    between atoms: _445  and  _446
REMARK  196  A    between atoms: _446  and  _447
REMARK  197  A    between atoms: _447  and  _448
REMARK  198  A    between atoms: _453  and  _454
REMARK  199  A    between atoms: _459  and  _461
REMARK  200  A    between atoms: _461  and  _462
REMARK  201  A    between atoms: _461  and  _464
REMARK  202  A    between atoms: _464  and  _465
REMARK  203  A    between atoms: _465  and  _466
REMARK  204  A    between atoms: _469  and  _471
REMARK  205  A    between atoms: _471  and  _472
REMARK  206  A    between atoms: _471  and  _474
REMARK  207  A    between atoms: _474  and  _475
REMARK  208  A    between atoms: _480  and  _482
REMARK  209  A    between atoms: _482  and  _483
REMARK  210  A    between atoms: _482  and  _485
REMARK  211  A    between atoms: _485  and  _486
REMARK  212  A    between atoms: _489  and  _491
REMARK  213  A    between atoms: _491  and  _492
REMARK  214  A    between atoms: _491  and  _494
REMARK  215  A    between atoms: _494  and  _495
REMARK  216  A    between atoms: _498  and  _500
REMARK  217  A    between atoms: _500  and  _501
REMARK  218  A    between atoms: _500  and  _503
REMARK  219  A    between atoms: _503  and  _504
REMARK  220  A    between atoms: _507  and  _509
REMARK  221  A    between atoms: _509  and  _510
REMARK  222  A    between atoms: _509  and  _512
REMARK  223  A    between atoms: _512  and  _513
REMARK  224  A    between atoms: _513  and  _514
REMARK  225  A    between atoms: _519  and  _521
REMARK  226  A    between atoms: _521  and  _522
REMARK  227  A    between atoms: _521  and  _524
REMARK  228  A    between atoms: _527  and  _529
REMARK  229  A    between atoms: _529  and  _530
REMARK  230  A    between atoms: _529  and  _532
REMARK  231  A    between atoms: _532  and  _533
REMARK  232  A    between atoms: _536  and  _538
REMARK  233  A    between atoms: _538  and  _539
REMARK  234  A    between atoms: _538  and  _541
REMARK  235  A    between atoms: _541  and  _542
REMARK  236  A    between atoms: _545  and  _547
REMARK  237  A    between atoms: _547  and  _548
REMARK  238  A    between atoms: _547  and  _550
REMARK  239  A    between atoms: _550  and  _551
REMARK  240  A    between atoms: _557  and  _559
REMARK  241  A    between atoms: _559  and  _560
REMARK  242  A    between atoms: _562  and  _564
REMARK  243  A    between atoms: _564  and  _565
REMARK  244  A    between atoms: _564  and  _567
REMARK  245  A    between atoms: _567  and  _568
REMARK  246  A    between atoms: _574  and  _576
REMARK  247  A    between atoms: _576  and  _577
REMARK  248  A    between atoms: _576  and  _579
REMARK  249  A    between atoms: _581  and  _583
REMARK  250  A    between atoms: _583  and  _584
REMARK  251  A    between atoms: _586  and  _588
REMARK  252  A    between atoms: _588  and  _589
REMARK  253  A    between atoms: _588  and  _591
REMARK  254  A    between atoms: _591  and  _592
REMARK  255  A    between atoms: _596  and  _597
REMARK  256  A    between atoms: _602  and  _604
REMARK  257  A    between atoms: _604  and  _605
REMARK  258  A    between atoms: _604  and  _607
REMARK  259  A    between atoms: _607  and  _608
REMARK  260  A    between atoms: _613  and  _614
REMARK  261  A    between atoms: _616  and  _618
REMARK  262  A    between atoms: _618  and  _619
REMARK  263  A    between atoms: _618  and  _621
REMARK  264  A    between atoms: _621  and  _622
REMARK  265  A    between atoms: _625  and  _627
REMARK  266  A    between atoms: _627  and  _628
REMARK  267  A    between atoms: _627  and  _630
REMARK  268  A    between atoms: _630  and  _631
REMARK  269  A    between atoms: _636  and  _638
REMARK  270  A    between atoms: _638  and  _639
REMARK  271  A    between atoms: _638  and  _641
REMARK  272  A    between atoms: _641  and  _642
REMARK  273  A    between atoms: _648  and  _650
REMARK  274  A    between atoms: _650  and  _651
REMARK  275  A    between atoms: _650  and  _653
REMARK  276  A    between atoms: _653  and  _654
REMARK  277  A    between atoms: _657  and  _659
REMARK  278  A    between atoms: _659  and  _660
REMARK  279  A    between atoms: _659  and  _662
REMARK  280  A    between atoms: _662  and  _663
REMARK  281  A    between atoms: _668  and  _669
REMARK  282  A    between atoms: _671  and  _673
REMARK  283  A    between atoms: _673  and  _674
REMARK  284  A    between atoms: _673  and  _676
REMARK  285  A    between atoms: _676  and  _677
REMARK  286  A    between atoms: _677  and  _678
REMARK                            x       y       z     vdW  Elec       q    Type
REMARK                         _______ _______ _______ _____ _____    ______ ____
ROOT
ATOM      1  O   HOH     1      36.492  28.558  16.398  0.00  0.00    +0.000 OA
ENDROOT
TORSDOF 0
REMARK  Name = ../refined-set-2016/3bwj/3bwj_pocket.pdb
REMARK  286 active torsions:
REMARK  status: ('A' for Active; 'I' for Inactive)
REMARK    1  A    between atoms: _1  and  _3
REMARK    2  A    between atoms: _3  and  _4
REMARK    3  A    between atoms: _3  and  _6
REMARK    4  A    between atoms: _6  and  _7
REMARK    5  A    between atoms: _10  and  _12
REMARK    6  A    between atoms: _12  and  _13
REMARK    7  A    between atoms: _12  and  _15
REMARK    8  A    between atoms: _15  and  _16
REMARK    9  A    between atoms: _19  and  _21
REMARK   10  A    between atoms: _21  and  _22
REMARK   11  A    between atoms: _24  and  _26
REMARK   12  A    between atoms: _26  and  _27
REMARK   13  A    between atoms: _26  and  _29
REMARK   14  A    between atoms: _29  and  _30
REMARK   15  A    between atoms: _33  and  _35
REMARK   16  A    between atoms: _35  and  _36
REMARK   17  A    between atoms: _38  and  _40
REMARK   18  A    between atoms: _40  and  _41
REMARK   19  A    between atoms: _40  and  _43
REMARK   20  A    between atoms: _43  and  _44
REMARK   21  A    between atoms: _46  and  _48
REMARK   22  A    between atoms: _48  and  _49
REMARK   23  A    between atoms: _48  and  _51
REMARK   24  A    between atoms: _51  and  _52
REMARK   25  A    between atoms: _58  and  _60
REMARK   26  A    between atoms: _60  and  _61
REMARK   27  A    between atoms: _63  and  _65
REMARK   28  A    between atoms: _65  and  _66
REMARK   29  A    between atoms: _65  and  _68
REMARK   30  A    between atoms: _68  and  _69
REMARK   31  A    between atoms: _69  and  _70
REMARK   32  A    between atoms: _70  and  _71
REMARK   33  A    between atoms: _80  and  _82
REMARK   34  A    between atoms: _82  and  _83
REMARK   35  A    between atoms: _82  and  _85
REMARK   36  A    between atoms: _88  and  _90
REMARK   37  A    between atoms: _90  and  _91
REMARK   38  A    between atoms: _90  and  _93
REMARK   39  A    between atoms: _93  and  _94
REMARK   40  A    between atoms: _94  and  _95
REMARK   41  A    between atoms: _97  and  _99
REMARK   42  A    between atoms: _99  and  _100
REMARK   43  A    between atoms: _99  and  _102
REMARK   44  A    between atoms: _102  and  _103
REMARK   45  A    between atoms: _106  and  _108
REMARK   46  A    between atoms: _108  and  _109
REMARK   47  A    between atoms: _108  and  _111
REMARK   48  A    between atoms: _111  and  _112
REMARK   49  A    between atoms: _117  and  _118
REMARK   50  A    between atoms: _120  and  _122
REMARK   51  A    between atoms: _122  and  _123
REMARK   52  A    between atoms: _126  and  _128
REMARK   53  A    between atoms: _128  and  _129
REMARK   54  A    between atoms: _128  and  _131
REMARK   55  A    between atoms: _131  and  _132
REMARK   56  A    between atoms: _132  and  _133
REMARK   57  A    between atoms: _135  and  _137
REMARK   58  A    between atoms: _137  and  _138
REMARK   59  A    between atoms: _137  and  _140
REMARK   60  A    between atoms: _140  and  _141
REMARK   61  A    between atoms: _141  and  _142
REMARK   62  A    between atoms: _142  and  _143
REMARK   63  A    between atoms: _143  and  _144
REMARK   64  A    between atoms: _148  and  _150
REMARK   65  A    between atoms: _150  and  _151
REMARK   66  A    between atoms: _150  and  _153
REMARK   67  A    between atoms: _153  and  _154
REMARK   68  A    between atoms: _157  and  _159
REMARK   69  A    between atoms: _159  and  _160
REMARK   70  A    between atoms: _159  and  _162
REMARK   71  A    between atoms: _162  and  _163
REMARK   72  A    between atoms: _166  and  _168
REMARK   73  A    between atoms: _168  and  _169
REMARK   74  A    between atoms: _168  and  _171
REMARK   75  A    between atoms: _171  and  _172
REMARK   76  A    between atoms: _175  and  _177
REMARK   77  A    between atoms: _177  and  _178
REMARK   78  A    between atoms: _177  and  _180
REMARK   79  A    between atoms: _180  and  _181
REMARK   80  A    between atoms: _181  and  _182
REMARK   81  A    between atoms: _182  and  _183
REMARK   82  A    between atoms: _183  and  _184
REMARK   83  A    between atoms: _188  and  _190
REMARK   84  A    between atoms: _190  and  _191
REMARK   85  A    between atoms: _190  and  _193
REMARK   86  A    between atoms: _196  and  _198
REMARK   87  A    between atoms: _198  and  _199
REMARK   88  A    between atoms: _198  and  _201
REMARK   89  A    between atoms: _201  and  _202
REMARK   90  A    between atoms: _205  and  _207
REMARK   91  A    between atoms: _207  and  _208
REMARK   92  A    between atoms: _207  and  _210
REMARK   93  A    between atoms: _210  and  _211
REMARK   94  A    between atoms: _211  and  _212
REMARK   95  A    between atoms: _217  and  _219
REMARK   96  A    between atoms: _219  and  _220
REMARK   97  A    between atoms: _219  and  _222
REMARK   98  A    between atoms: _222  and  _223
REMARK   99  A    between atoms: _226  and  _228
REMARK  100  A    between atoms: _228  and  _229
REMARK  101  A    between atoms: _228  and  _231
REMARK  102  A    between atoms: _231  and  _232
REMARK  103  A    between atoms: _232  and  _233
REMARK  104  A    between atoms: _236  and  _238
REMARK  105  A    between atoms: _238  and  _239
REMARK  106  A    between atoms: _238  and  _241
REMARK  107  A    between atoms: _244  and  _246
REMARK  108  A    between atoms: _246  and  _247
REMARK  109  A    between atoms: _246  and  _249
REMARK  110  A    between atoms: _249  and  _250
REMARK  111  A    between atoms: _250  and  _251
REMARK  112  A    between atoms: _251  and  _252
REMARK  113  A    between atoms: _252  and  _253
REMARK  114  A    between atoms: _257  and  _259
REMARK  115  A    between atoms: _259  and  _260
REMARK  116  A    between atoms: _259  and  _262
REMARK  117  A    between atoms: _262  and  _263
REMARK  118  A    between atoms: _266  and  _268
REMARK  119  A    between atoms: _268  and  _269
REMARK  120  A    between atoms: _268  and  _271
REMARK  121  A    between atoms: _271  and  _272
REMARK  122  A    between atoms: _272  and  _273
REMARK  123  A    between atoms: _276  and  _278
REMARK  124  A    between atoms: _278  and  _279
REMARK  125  A    between atoms: _278  and  _281
REMARK  126  A    between atoms: _281  and  _282
REMARK  127  A    between atoms: _282  and  _283
REMARK  128  A    between atoms: _285  and  _287
REMARK  129  A    between atoms: _287  and  _288
REMARK  130  A    between atoms: _287  and  _290
REMARK  131  A    between atoms: _293  and  _295
REMARK  132  A    between atoms: _295  and  _296
REMARK  133  A    between atoms: _295  and  _298
REMARK  134  A    between atoms: _298  and  _299
REMARK  135  A    between atoms: _299  and  _300
REMARK  136  A    between atoms: _302  and  _304
REMARK  137  A    between atoms: _304  and  _305
REMARK  138  A    between atoms: _304  and  _307
REMARK  139  A    between atoms: _307  and  _308
REMARK  140  A    between atoms: _308  and  _309
REMARK  141  A    between atoms: _312  and  _314
REMARK  142  A    between atoms: _314  and  _315
REMARK  143  A    between atoms: _314  and  _317
REMARK  144  A    between atoms: _317  and  _318
REMARK  145  A    between atoms: _323  and  _324
REMARK  146  A    between atoms: _326  and  _328
REMARK  147  A    between atoms: _328  and  _329
REMARK  148  A    between atoms: _328  and  _331
REMARK  149  A    between atoms: _335  and  _336
REMARK  150  A    between atoms: _341  and  _343
REMARK  151  A    between atoms: _343  and  _344
REMARK  152  A    between atoms: _346  and  _348
REMARK  153  A    between atoms: _348  and  _349
REMARK  154  A    between atoms: _351  and  _353
REMARK  155  A    between atoms: _353  and  _354
REMARK  156  A    between atoms: _353  and  _356
REMARK  157  A    between atoms: _356  and  _357
REMARK  158  A    between atoms: _357  and  _358
REMARK  159  A    between atoms: _361  and  _363
REMARK  160  A    between atoms: _363  and  _364
REMARK  161  A    between atoms: _363  and  _366
REMARK  162  A    between atoms: _366  and  _367
REMARK  163  A    between atoms: _367  and  _368
REMARK  164  A    between atoms: _370  and  _372
REMARK  165  A    between atoms: _372  and  _373
REMARK  166  A    between atoms: _372  and  _375
REMARK  167  A    between atoms: _375  and  _376
REMARK  168  A    between atoms: _382  and  _384
REMARK  169  A    between atoms: _384  and  _385
REMARK  170  A    between atoms: _384  and  _387
REMARK  171  A    between atoms: _387  and  _388
REMARK  172  A    between atoms: _390  and  _392
REMARK  173  A    between atoms: _392  and  _393
REMARK  174  A    between atoms: _392  and  _395
REMARK  175  A    between atoms: _395  and  _396
REMARK  176  A    between atoms: _401  and  _402
REMARK  177  A    between atoms: _404  and  _406
REMARK  178  A    between atoms: _406  and  _407
REMARK  179  A    between atoms: _406  and  _409
REMARK  180  A    between atoms: _409  and  _410
REMARK  181  A    between atoms: _410  and  _411
REMARK  182  A    between atoms: _411  and  _412
REMARK  183  A    between atoms: _421  and  _423
REMARK  184  A    between atoms: _423  and  _424
REMARK  185  A    between atoms: _423  and  _426
REMARK  186  A    between atoms: _426  and  _427
REMARK  187  A    between atoms: _430  and  _432
REMARK  188  A    between atoms: _432  and  _433
REMARK  189  A    between atoms: _432  and  _435
REMARK  190  A    between atoms: _435  and  _436
REMARK  191  A    between atoms: _439  and  _441
REMARK  192  A    between atoms: _441  and  _442
REMARK  193  A    between atoms: _441  and  _444
REMARK  194  A    between atoms: _444  and  _445
REMARK  195  A    between atoms: _445  and  _446
REMARK  196  A    between atoms: _446  and  _447
REMARK  197  A    between atoms: _447  and  _448
REMARK  198  A    between atoms: _453  and  _454
REMARK  199  A    between atoms: _459  and  _461
REMARK  200  A    between atoms: _461  and  _462
REMARK  201  A    between atoms: _461  and  _464
REMARK  202  A    between atoms: _464  and  _465
REMARK  203  A    between atoms: _465  and  _466
REMARK  204  A    between atoms: _469  and  _471
REMARK  205  A    between atoms: _471  and  _472
REMARK  206  A    between atoms: _471  and  _474
REMARK  207  A    between atoms: _474  and  _475
REMARK  208  A    between atoms: _480  and  _482
REMARK  209  A    between atoms: _482  and  _483
REMARK  210  A    between atoms: _482  and  _485
REMARK  211  A    between atoms: _485  and  _486
REMARK  212  A    between atoms: _489  and  _491
REMARK  213  A    between atoms: _491  and  _492
REMARK  214  A    between atoms: _491  and  _494
REMARK  215  A    between atoms: _494  and  _495
REMARK  216  A    between atoms: _498  and  _500
REMARK  217  A    between atoms: _500  and  _501
REMARK  218  A    between atoms: _500  and  _503
REMARK  219  A    between atoms: _503  and  _504
REMARK  220  A    between atoms: _507  and  _509
REMARK  221  A    between atoms: _509  and  _510
REMARK  222  A    between atoms: _509  and  _512
REMARK  223  A    between atoms: _512  and  _513
REMARK  224  A    between atoms: _513  and  _514
REMARK  225  A    between atoms: _519  and  _521
REMARK  226  A    between atoms: _521  and  _522
REMARK  227  A    between atoms: _521  and  _524
REMARK  228  A    between atoms: _527  and  _529
REMARK  229  A    between atoms: _529  and  _530
REMARK  230  A    between atoms: _529  and  _532
REMARK  231  A    between atoms: _532  and  _533
REMARK  232  A    between atoms: _536  and  _538
REMARK  233  A    between atoms: _538  and  _539
REMARK  234  A    between atoms: _538  and  _541
REMARK  235  A    between atoms: _541  and  _542
REMARK  236  A    between atoms: _545  and  _547
REMARK  237  A    between atoms: _547  and  _548
REMARK  238  A    between atoms: _547  and  _550
REMARK  239  A    between atoms: _550  and  _551
REMARK  240  A    between atoms: _557  and  _559
REMARK  241  A    between atoms: _559  and  _560
REMARK  242  A    between atoms: _562  and  _564
REMARK  243  A    between atoms: _564  and  _565
REMARK  244  A    between atoms: _564  and  _567
REMARK  245  A    between atoms: _567  and  _568
REMARK  246  A    between atoms: _574  and  _576
REMARK  247  A    between atoms: _576  and  _577
REMARK  248  A    between atoms: _576  and  _579
REMARK  249  A    between atoms: _581  and  _583
REMARK  250  A    between atoms: _583  and  _584
REMARK  251  A    between atoms: _586  and  _588
REMARK  252  A    between atoms: _588  and  _589
REMARK  253  A    between atoms: _588  and  _591
REMARK  254  A    between atoms: _591  and  _592
REMARK  255  A    between atoms: _596  and  _597
REMARK  256  A    between atoms: _602  and  _604
REMARK  257  A    between atoms: _604  and  _605
REMARK  258  A    between atoms: _604  and  _607
REMARK  259  A    between atoms: _607  and  _608
REMARK  260  A    between atoms: _613  and  _614
REMARK  261  A    between atoms: _616  and  _618
REMARK  262  A    between atoms: _618  and  _619
REMARK  263  A    between atoms: _618  and  _621
REMARK  264  A    between atoms: _621  and  _622
REMARK  265  A    between atoms: _625  and  _627
REMARK  266  A    between atoms: _627  and  _628
REMARK  267  A    between atoms: _627  and  _630
REMARK  268  A    between atoms: _630  and  _631
REMARK  269  A    between atoms: _636  and  _638
REMARK  270  A    between atoms: _638  and  _639
REMARK  271  A    between atoms: _638  and  _641
REMARK  272  A    between atoms: _641  and  _642
REMARK  273  A    between atoms: _648  and  _650
REMARK  274  A    between atoms: _650  and  _651
REMARK  275  A    between atoms: _650  and  _653
REMARK  276  A    between atoms: _653  and  _654
REMARK  277  A    between atoms: _657  and  _659
REMARK  278  A    between atoms: _659  and  _660
REMARK  279  A    between atoms: _659  and  _662
REMARK  280  A    between atoms: _662  and  _663
REMARK  281  A    between atoms: _668  and  _669
REMARK  282  A    between atoms: _671  and  _673
REMARK  283  A    between atoms: _673  and  _674
REMARK  284  A    between atoms: _673  and  _676
REMARK  285  A    between atoms: _676  and  _677
REMARK  286  A    between atoms: _677  and  _678
REMARK                            x       y       z     vdW  Elec       q    Type
REMARK                         _______ _______ _______ _____ _____    ______ ____
ROOT
ATOM      1  O   HOH     1      38.697  29.773   2.324  0.00  0.00    +0.000 OA
ENDROOT
TORSDOF 0
REMARK  Name = ../refined-set-2016/3bwj/3bwj_pocket.pdb
REMARK  286 active torsions:
REMARK  status: ('A' for Active; 'I' for Inactive)
REMARK    1  A    between atoms: _1  and  _3
REMARK    2  A    between atoms: _3  and  _4
REMARK    3  A    between atoms: _3  and  _6
REMARK    4  A    between atoms: _6  and  _7
REMARK    5  A    between atoms: _10  and  _12
REMARK    6  A    between atoms: _12  and  _13
REMARK    7  A    between atoms: _12  and  _15
REMARK    8  A    between atoms: _15  and  _16
REMARK    9  A    between atoms: _19  and  _21
REMARK   10  A    between atoms: _21  and  _22
REMARK   11  A    between atoms: _24  and  _26
REMARK   12  A    between atoms: _26  and  _27
REMARK   13  A    between atoms: _26  and  _29
REMARK   14  A    between atoms: _29  and  _30
REMARK   15  A    between atoms: _33  and  _35
REMARK   16  A    between atoms: _35  and  _36
REMARK   17  A    between atoms: _38  and  _40
REMARK   18  A    between atoms: _40  and  _41
REMARK   19  A    between atoms: _40  and  _43
REMARK   20  A    between atoms: _43  and  _44
REMARK   21  A    between atoms: _46  and  _48
REMARK   22  A    between atoms: _48  and  _49
REMARK   23  A    between atoms: _48  and  _51
REMARK   24  A    between atoms: _51  and  _52
REMARK   25  A    between atoms: _58  and  _60
REMARK   26  A    between atoms: _60  and  _61
REMARK   27  A    between atoms: _63  and  _65
REMARK   28  A    between atoms: _65  and  _66
REMARK   29  A    between atoms: _65  and  _68
REMARK   30  A    between atoms: _68  and  _69
REMARK   31  A    between atoms: _69  and  _70
REMARK   32  A    between atoms: _70  and  _71
REMARK   33  A    between atoms: _80  and  _82
REMARK   34  A    between atoms: _82  and  _83
REMARK   35  A    between atoms: _82  and  _85
REMARK   36  A    between atoms: _88  and  _90
REMARK   37  A    between atoms: _90  and  _91
REMARK   38  A    between atoms: _90  and  _93
REMARK   39  A    between atoms: _93  and  _94
REMARK   40  A    between atoms: _94  and  _95
REMARK   41  A    between atoms: _97  and  _99
REMARK   42  A    between atoms: _99  and  _100
REMARK   43  A    between atoms: _99  and  _102
REMARK   44  A    between atoms: _102  and  _103
REMARK   45  A    between atoms: _106  and  _108
REMARK   46  A    between atoms: _108  and  _109
REMARK   47  A    between atoms: _108  and  _111
REMARK   48  A    between atoms: _111  and  _112
REMARK   49  A    between atoms: _117  and  _118
REMARK   50  A    between atoms: _120  and  _122
REMARK   51  A    between atoms: _122  and  _123
REMARK   52  A    between atoms: _126  and  _128
REMARK   53  A    between atoms: _128  and  _129
REMARK   54  A    between atoms: _128  and  _131
REMARK   55  A    between atoms: _131  and  _132
REMARK   56  A    between atoms: _132  and  _133
REMARK   57  A    between atoms: _135  and  _137
REMARK   58  A    between atoms: _137  and  _138
REMARK   59  A    between atoms: _137  and  _140
REMARK   60  A    between atoms: _140  and  _141
REMARK   61  A    between atoms: _141  and  _142
REMARK   62  A    between atoms: _142  and  _143
REMARK   63  A    between atoms: _143  and  _144
REMARK   64  A    between atoms: _148  and  _150
REMARK   65  A    between atoms: _150  and  _151
REMARK   66  A    between atoms: _150  and  _153
REMARK   67  A    between atoms: _153  and  _154
REMARK   68  A    between atoms: _157  and  _159
REMARK   69  A    between atoms: _159  and  _160
REMARK   70  A    between atoms: _159  and  _162
REMARK   71  A    between atoms: _162  and  _163
REMARK   72  A    between atoms: _166  and  _168
REMARK   73  A    between atoms: _168  and  _169
REMARK   74  A    between atoms: _168  and  _171
REMARK   75  A    between atoms: _171  and  _172
REMARK   76  A    between atoms: _175  and  _177
REMARK   77  A    between atoms: _177  and  _178
REMARK   78  A    between atoms: _177  and  _180
REMARK   79  A    between atoms: _180  and  _181
REMARK   80  A    between atoms: _181  and  _182
REMARK   81  A    between atoms: _182  and  _183
REMARK   82  A    between atoms: _183  and  _184
REMARK   83  A    between atoms: _188  and  _190
REMARK   84  A    between atoms: _190  and  _191
REMARK   85  A    between atoms: _190  and  _193
REMARK   86  A    between atoms: _196  and  _198
REMARK   87  A    between atoms: _198  and  _199
REMARK   88  A    between atoms: _198  and  _201
REMARK   89  A    between atoms: _201  and  _202
REMARK   90  A    between atoms: _205  and  _207
REMARK   91  A    between atoms: _207  and  _208
REMARK   92  A    between atoms: _207  and  _210
REMARK   93  A    between atoms: _210  and  _211
REMARK   94  A    between atoms: _211  and  _212
REMARK   95  A    between atoms: _217  and  _219
REMARK   96  A    between atoms: _219  and  _220
REMARK   97  A    between atoms: _219  and  _222
REMARK   98  A    between atoms: _222  and  _223
REMARK   99  A    between atoms: _226  and  _228
REMARK  100  A    between atoms: _228  and  _229
REMARK  101  A    between atoms: _228  and  _231
REMARK  102  A    between atoms: _231  and  _232
REMARK  103  A    between atoms: _232  and  _233
REMARK  104  A    between atoms: _236  and  _238
REMARK  105  A    between atoms: _238  and  _239
REMARK  106  A    between atoms: _238  and  _241
REMARK  107  A    between atoms: _244  and  _246
REMARK  108  A    between atoms: _246  and  _247
REMARK  109  A    between atoms: _246  and  _249
REMARK  110  A    between atoms: _249  and  _250
REMARK  111  A    between atoms: _250  and  _251
REMARK  112  A    between atoms: _251  and  _252
REMARK  113  A    between atoms: _252  and  _253
REMARK  114  A    between atoms: _257  and  _259
REMARK  115  A    between atoms: _259  and  _260
REMARK  116  A    between atoms: _259  and  _262
REMARK  117  A    between atoms: _262  and  _263
REMARK  118  A    between atoms: _266  and  _268
REMARK  119  A    between atoms: _268  and  _269
REMARK  120  A    between atoms: _268  and  _271
REMARK  121  A    between atoms: _271  and  _272
REMARK  122  A    between atoms: _272  and  _273
REMARK  123  A    between atoms: _276  and  _278
REMARK  124  A    between atoms: _278  and  _279
REMARK  125  A    between atoms: _278  and  _281
REMARK  126  A    between atoms: _281  and  _282
REMARK  127  A    between atoms: _282  and  _283
REMARK  128  A    between atoms: _285  and  _287
REMARK  129  A    between atoms: _287  and  _288
REMARK  130  A    between atoms: _287  and  _290
REMARK  131  A    between atoms: _293  and  _295
REMARK  132  A    between atoms: _295  and  _296
REMARK  133  A    between atoms: _295  and  _298
REMARK  134  A    between atoms: _298  and  _299
REMARK  135  A    between atoms: _299  and  _300
REMARK  136  A    between atoms: _302  and  _304
REMARK  137  A    between atoms: _304  and  _305
REMARK  138  A    between atoms: _304  and  _307
REMARK  139  A    between atoms: _307  and  _308
REMARK  140  A    between atoms: _308  and  _309
REMARK  141  A    between atoms: _312  and  _314
REMARK  142  A    between atoms: _314  and  _315
REMARK  143  A    between atoms: _314  and  _317
REMARK  144  A    between atoms: _317  and  _318
REMARK  145  A    between atoms: _323  and  _324
REMARK  146  A    between atoms: _326  and  _328
REMARK  147  A    between atoms: _328  and  _329
REMARK  148  A    between atoms: _328  and  _331
REMARK  149  A    between atoms: _335  and  _336
REMARK  150  A    between atoms: _341  and  _343
REMARK  151  A    between atoms: _343  and  _344
REMARK  152  A    between atoms: _346  and  _348
REMARK  153  A    between atoms: _348  and  _349
REMARK  154  A    between atoms: _351  and  _353
REMARK  155  A    between atoms: _353  and  _354
REMARK  156  A    between atoms: _353  and  _356
REMARK  157  A    between atoms: _356  and  _357
REMARK  158  A    between atoms: _357  and  _358
REMARK  159  A    between atoms: _361  and  _363
REMARK  160  A    between atoms: _363  and  _364
REMARK  161  A    between atoms: _363  and  _366
REMARK  162  A    between atoms: _366  and  _367
REMARK  163  A    between atoms: _367  and  _368
REMARK  164  A    between atoms: _370  and  _372
REMARK  165  A    between atoms: _372  and  _373
REMARK  166  A    between atoms: _372  and  _375
REMARK  167  A    between atoms: _375  and  _376
REMARK  168  A    between atoms: _382  and  _384
REMARK  169  A    between atoms: _384  and  _385
REMARK  170  A    between atoms: _384  and  _387
REMARK  171  A    between atoms: _387  and  _388
REMARK  172  A    between atoms: _390  and  _392
REMARK  173  A    between atoms: _392  and  _393
REMARK  174  A    between atoms: _392  and  _395
REMARK  175  A    between atoms: _395  and  _396
REMARK  176  A    between atoms: _401  and  _402
REMARK  177  A    between atoms: _404  and  _406
REMARK  178  A    between atoms: _406  and  _407
REMARK  179  A    between atoms: _406  and  _409
REMARK  180  A    between atoms: _409  and  _410
REMARK  181  A    between atoms: _410  and  _411
REMARK  182  A    between atoms: _411  and  _412
REMARK  183  A    between atoms: _421  and  _423
REMARK  184  A    between atoms: _423  and  _424
REMARK  185  A    between atoms: _423  and  _426
REMARK  186  A    between atoms: _426  and  _427
REMARK  187  A    between atoms: _430  and  _432
REMARK  188  A    between atoms: _432  and  _433
REMARK  189  A    between atoms: _432  and  _435
REMARK  190  A    between atoms: _435  and  _436
REMARK  191  A    between atoms: _439  and  _441
REMARK  192  A    between atoms: _441  and  _442
REMARK  193  A    between atoms: _441  and  _444
REMARK  194  A    between atoms: _444  and  _445
REMARK  195  A    between atoms: _445  and  _446
REMARK  196  A    between atoms: _446  and  _447
REMARK  197  A    between atoms: _447  and  _448
REMARK  198  A    between atoms: _453  and  _454
REMARK  199  A    between atoms: _459  and  _461
REMARK  200  A    between atoms: _461  and  _462
REMARK  201  A    between atoms: _461  and  _464
REMARK  202  A    between atoms: _464  and  _465
REMARK  203  A    between atoms: _465  and  _466
REMARK  204  A    between atoms: _469  and  _471
REMARK  205  A    between atoms: _471  and  _472
REMARK  206  A    between atoms: _471  and  _474
REMARK  207  A    between atoms: _474  and  _475
REMARK  208  A    between atoms: _480  and  _482
REMARK  209  A    between atoms: _482  and  _483
REMARK  210  A    between atoms: _482  and  _485
REMARK  211  A    between atoms: _485  and  _486
REMARK  212  A    between atoms: _489  and  _491
REMARK  213  A    between atoms: _491  and  _492
REMARK  214  A    between atoms: _491  and  _494
REMARK  215  A    between atoms: _494  and  _495
REMARK  216  A    between atoms: _498  and  _500
REMARK  217  A    between atoms: _500  and  _501
REMARK  218  A    between atoms: _500  and  _503
REMARK  219  A    between atoms: _503  and  _504
REMARK  220  A    between atoms: _507  and  _509
REMARK  221  A    between atoms: _509  and  _510
REMARK  222  A    between atoms: _509  and  _512
REMARK  223  A    between atoms: _512  and  _513
REMARK  224  A    between atoms: _513  and  _514
REMARK  225  A    between atoms: _519  and  _521
REMARK  226  A    between atoms: _521  and  _522
REMARK  227  A    between atoms: _521  and  _524
REMARK  228  A    between atoms: _527  and  _529
REMARK  229  A    between atoms: _529  and  _530
REMARK  230  A    between atoms: _529  and  _532
REMARK  231  A    between atoms: _532  and  _533
REMARK  232  A    between atoms: _536  and  _538
REMARK  233  A    between atoms: _538  and  _539
REMARK  234  A    between atoms: _538  and  _541
REMARK  235  A    between atoms: _541  and  _542
REMARK  236  A    between atoms: _545  and  _547
REMARK  237  A    between atoms: _547  and  _548
REMARK  238  A    between atoms: _547  and  _550
REMARK  239  A    between atoms: _550  and  _551
REMARK  240  A    between atoms: _557  and  _559
REMARK  241  A    between atoms: _559  and  _560
REMARK  242  A    between atoms: _562  and  _564
REMARK  243  A    between atoms: _564  and  _565
REMARK  244  A    between atoms: _564  and  _567
REMARK  245  A    between atoms: _567  and  _568
REMARK  246  A    between atoms: _574  and  _576
REMARK  247  A    between atoms: _576  and  _577
REMARK  248  A    between atoms: _576  and  _579
REMARK  249  A    between atoms: _581  and  _583
REMARK  250  A    between atoms: _583  and  _584
REMARK  251  A    between atoms: _586  and  _588
REMARK  252  A    between atoms: _588  and  _589
REMARK  253  A    between atoms: _588  and  _591
REMARK  254  A    between atoms: _591  and  _592
REMARK  255  A    between atoms: _596  and  _597
REMARK  256  A    between atoms: _602  and  _604
REMARK  257  A    between atoms: _604  and  _605
REMARK  258  A    between atoms: _604  and  _607
REMARK  259  A    between atoms: _607  and  _608
REMARK  260  A    between atoms: _613  and  _614
REMARK  261  A    between atoms: _616  and  _618
REMARK  262  A    between atoms: _618  and  _619
REMARK  263  A    between atoms: _618  and  _621
REMARK  264  A    between atoms: _621  and  _622
REMARK  265  A    between atoms: _625  and  _627
REMARK  266  A    between atoms: _627  and  _628
REMARK  267  A    between atoms: _627  and  _630
REMARK  268  A    between atoms: _630  and  _631
REMARK  269  A    between atoms: _636  and  _638
REMARK  270  A    between atoms: _638  and  _639
REMARK  271  A    between atoms: _638  and  _641
REMARK  272  A    between atoms: _641  and  _642
REMARK  273  A    between atoms: _648  and  _650
REMARK  274  A    between atoms: _650  and  _651
REMARK  275  A    between atoms: _650  and  _653
REMARK  276  A    between atoms: _653  and  _654
REMARK  277  A    between atoms: _657  and  _659
REMARK  278  A    between atoms: _659  and  _660
REMARK  279  A    between atoms: _659  and  _662
REMARK  280  A    between atoms: _662  and  _663
REMARK  281  A    between atoms: _668  and  _669
REMARK  282  A    between atoms: _671  and  _673
REMARK  283  A    between atoms: _673  and  _674
REMARK  284  A    between atoms: _673  and  _676
REMARK  285  A    between atoms: _676  and  _677
REMARK  286  A    between atoms: _677  and  _678
REMARK                            x       y       z     vdW  Elec       q    Type
REMARK                         _______ _______ _______ _____ _____    ______ ____
ROOT
ATOM      1  O   HOH     1      31.923  32.899  13.654  0.00  0.00    +0.000 OA
ENDROOT
TORSDOF 0
REMARK  Name = ../refined-set-2016/3bwj/3bwj_pocket.pdb
REMARK  286 active torsions:
REMARK  status: ('A' for Active; 'I' for Inactive)
REMARK    1  A    between atoms: _1  and  _3
REMARK    2  A    between atoms: _3  and  _4
REMARK    3  A    between atoms: _3  and  _6
REMARK    4  A    between atoms: _6  and  _7
REMARK    5  A    between atoms: _10  and  _12
REMARK    6  A    between atoms: _12  and  _13
REMARK    7  A    between atoms: _12  and  _15
REMARK    8  A    between atoms: _15  and  _16
REMARK    9  A    between atoms: _19  and  _21
REMARK   10  A    between atoms: _21  and  _22
REMARK   11  A    between atoms: _24  and  _26
REMARK   12  A    between atoms: _26  and  _27
REMARK   13  A    between atoms: _26  and  _29
REMARK   14  A    between atoms: _29  and  _30
REMARK   15  A    between atoms: _33  and  _35
REMARK   16  A    between atoms: _35  and  _36
REMARK   17  A    between atoms: _38  and  _40
REMARK   18  A    between atoms: _40  and  _41
REMARK   19  A    between atoms: _40  and  _43
REMARK   20  A    between atoms: _43  and  _44
REMARK   21  A    between atoms: _46  and  _48
REMARK   22  A    between atoms: _48  and  _49
REMARK   23  A    between atoms: _48  and  _51
REMARK   24  A    between atoms: _51  and  _52
REMARK   25  A    between atoms: _58  and  _60
REMARK   26  A    between atoms: _60  and  _61
REMARK   27  A    between atoms: _63  and  _65
REMARK   28  A    between atoms: _65  and  _66
REMARK   29  A    between atoms: _65  and  _68
REMARK   30  A    between atoms: _68  and  _69
REMARK   31  A    between atoms: _69  and  _70
REMARK   32  A    between atoms: _70  and  _71
REMARK   33  A    between atoms: _80  and  _82
REMARK   34  A    between atoms: _82  and  _83
REMARK   35  A    between atoms: _82  and  _85
REMARK   36  A    between atoms: _88  and  _90
REMARK   37  A    between atoms: _90  and  _91
REMARK   38  A    between atoms: _90  and  _93
REMARK   39  A    between atoms: _93  and  _94
REMARK   40  A    between atoms: _94  and  _95
REMARK   41  A    between atoms: _97  and  _99
REMARK   42  A    between atoms: _99  and  _100
REMARK   43  A    between atoms: _99  and  _102
REMARK   44  A    between atoms: _102  and  _103
REMARK   45  A    between atoms: _106  and  _108
REMARK   46  A    between atoms: _108  and  _109
REMARK   47  A    between atoms: _108  and  _111
REMARK   48  A    between atoms: _111  and  _112
REMARK   49  A    between atoms: _117  and  _118
REMARK   50  A    between atoms: _120  and  _122
REMARK   51  A    between atoms: _122  and  _123
REMARK   52  A    between atoms: _126  and  _128
REMARK   53  A    between atoms: _128  and  _129
REMARK   54  A    between atoms: _128  and  _131
REMARK   55  A    between atoms: _131  and  _132
REMARK   56  A    between atoms: _132  and  _133
REMARK   57  A    between atoms: _135  and  _137
REMARK   58  A    between atoms: _137  and  _138
REMARK   59  A    between atoms: _137  and  _140
REMARK   60  A    between atoms: _140  and  _141
REMARK   61  A    between atoms: _141  and  _142
REMARK   62  A    between atoms: _142  and  _143
REMARK   63  A    between atoms: _143  and  _144
REMARK   64  A    between atoms: _148  and  _150
REMARK   65  A    between atoms: _150  and  _151
REMARK   66  A    between atoms: _150  and  _153
REMARK   67  A    between atoms: _153  and  _154
REMARK   68  A    between atoms: _157  and  _159
REMARK   69  A    between atoms: _159  and  _160
REMARK   70  A    between atoms: _159  and  _162
REMARK   71  A    between atoms: _162  and  _163
REMARK   72  A    between atoms: _166  and  _168
REMARK   73  A    between atoms: _168  and  _169
REMARK   74  A    between atoms: _168  and  _171
REMARK   75  A    between atoms: _171  and  _172
REMARK   76  A    between atoms: _175  and  _177
REMARK   77  A    between atoms: _177  and  _178
REMARK   78  A    between atoms: _177  and  _180
REMARK   79  A    between atoms: _180  and  _181
REMARK   80  A    between atoms: _181  and  _182
REMARK   81  A    between atoms: _182  and  _183
REMARK   82  A    between atoms: _183  and  _184
REMARK   83  A    between atoms: _188  and  _190
REMARK   84  A    between atoms: _190  and  _191
REMARK   85  A    between atoms: _190  and  _193
REMARK   86  A    between atoms: _196  and  _198
REMARK   87  A    between atoms: _198  and  _199
REMARK   88  A    between atoms: _198  and  _201
REMARK   89  A    between atoms: _201  and  _202
REMARK   90  A    between atoms: _205  and  _207
REMARK   91  A    between atoms: _207  and  _208
REMARK   92  A    between atoms: _207  and  _210
REMARK   93  A    between atoms: _210  and  _211
REMARK   94  A    between atoms: _211  and  _212
REMARK   95  A    between atoms: _217  and  _219
REMARK   96  A    between atoms: _219  and  _220
REMARK   97  A    between atoms: _219  and  _222
REMARK   98  A    between atoms: _222  and  _223
REMARK   99  A    between atoms: _226  and  _228
REMARK  100  A    between atoms: _228  and  _229
REMARK  101  A    between atoms: _228  and  _231
REMARK  102  A    between atoms: _231  and  _232
REMARK  103  A    between atoms: _232  and  _233
REMARK  104  A    between atoms: _236  and  _238
REMARK  105  A    between atoms: _238  and  _239
REMARK  106  A    between atoms: _238  and  _241
REMARK  107  A    between atoms: _244  and  _246
REMARK  108  A    between atoms: _246  and  _247
REMARK  109  A    between atoms: _246  and  _249
REMARK  110  A    between atoms: _249  and  _250
REMARK  111  A    between atoms: _250  and  _251
REMARK  112  A    between atoms: _251  and  _252
REMARK  113  A    between atoms: _252  and  _253
REMARK  114  A    between atoms: _257  and  _259
REMARK  115  A    between atoms: _259  and  _260
REMARK  116  A    between atoms: _259  and  _262
REMARK  117  A    between atoms: _262  and  _263
REMARK  118  A    between atoms: _266  and  _268
REMARK  119  A    between atoms: _268  and  _269
REMARK  120  A    between atoms: _268  and  _271
REMARK  121  A    between atoms: _271  and  _272
REMARK  122  A    between atoms: _272  and  _273
REMARK  123  A    between atoms: _276  and  _278
REMARK  124  A    between atoms: _278  and  _279
REMARK  125  A    between atoms: _278  and  _281
REMARK  126  A    between atoms: _281  and  _282
REMARK  127  A    between atoms: _282  and  _283
REMARK  128  A    between atoms: _285  and  _287
REMARK  129  A    between atoms: _287  and  _288
REMARK  130  A    between atoms: _287  and  _290
REMARK  131  A    between atoms: _293  and  _295
REMARK  132  A    between atoms: _295  and  _296
REMARK  133  A    between atoms: _295  and  _298
REMARK  134  A    between atoms: _298  and  _299
REMARK  135  A    between atoms: _299  and  _300
REMARK  136  A    between atoms: _302  and  _304
REMARK  137  A    between atoms: _304  and  _305
REMARK  138  A    between atoms: _304  and  _307
REMARK  139  A    between atoms: _307  and  _308
REMARK  140  A    between atoms: _308  and  _309
REMARK  141  A    between atoms: _312  and  _314
REMARK  142  A    between atoms: _314  and  _315
REMARK  143  A    between atoms: _314  and  _317
REMARK  144  A    between atoms: _317  and  _318
REMARK  145  A    between atoms: _323  and  _324
REMARK  146  A    between atoms: _326  and  _328
REMARK  147  A    between atoms: _328  and  _329
REMARK  148  A    between atoms: _328  and  _331
REMARK  149  A    between atoms: _335  and  _336
REMARK  150  A    between atoms: _341  and  _343
REMARK  151  A    between atoms: _343  and  _344
REMARK  152  A    between atoms: _346  and  _348
REMARK  153  A    between atoms: _348  and  _349
REMARK  154  A    between atoms: _351  and  _353
REMARK  155  A    between atoms: _353  and  _354
REMARK  156  A    between atoms: _353  and  _356
REMARK  157  A    between atoms: _356  and  _357
REMARK  158  A    between atoms: _357  and  _358
REMARK  159  A    between atoms: _361  and  _363
REMARK  160  A    between atoms: _363  and  _364
REMARK  161  A    between atoms: _363  and  _366
REMARK  162  A    between atoms: _366  and  _367
REMARK  163  A    between atoms: _367  and  _368
REMARK  164  A    between atoms: _370  and  _372
REMARK  165  A    between atoms: _372  and  _373
REMARK  166  A    between atoms: _372  and  _375
REMARK  167  A    between atoms: _375  and  _376
REMARK  168  A    between atoms: _382  and  _384
REMARK  169  A    between atoms: _384  and  _385
REMARK  170  A    between atoms: _384  and  _387
REMARK  171  A    between atoms: _387  and  _388
REMARK  172  A    between atoms: _390  and  _392
REMARK  173  A    between atoms: _392  and  _393
REMARK  174  A    between atoms: _392  and  _395
REMARK  175  A    between atoms: _395  and  _396
REMARK  176  A    between atoms: _401  and  _402
REMARK  177  A    between atoms: _404  and  _406
REMARK  178  A    between atoms: _406  and  _407
REMARK  179  A    between atoms: _406  and  _409
REMARK  180  A    between atoms: _409  and  _410
REMARK  181  A    between atoms: _410  and  _411
REMARK  182  A    between atoms: _411  and  _412
REMARK  183  A    between atoms: _421  and  _423
REMARK  184  A    between atoms: _423  and  _424
REMARK  185  A    between atoms: _423  and  _426
REMARK  186  A    between atoms: _426  and  _427
REMARK  187  A    between atoms: _430  and  _432
REMARK  188  A    between atoms: _432  and  _433
REMARK  189  A    between atoms: _432  and  _435
REMARK  190  A    between atoms: _435  and  _436
REMARK  191  A    between atoms: _439  and  _441
REMARK  192  A    between atoms: _441  and  _442
REMARK  193  A    between atoms: _441  and  _444
REMARK  194  A    between atoms: _444  and  _445
REMARK  195  A    between atoms: _445  and  _446
REMARK  196  A    between atoms: _446  and  _447
REMARK  197  A    between atoms: _447  and  _448
REMARK  198  A    between atoms: _453  and  _454
REMARK  199  A    between atoms: _459  and  _461
REMARK  200  A    between atoms: _461  and  _462
REMARK  201  A    between atoms: _461  and  _464
REMARK  202  A    between atoms: _464  and  _465
REMARK  203  A    between atoms: _465  and  _466
REMARK  204  A    between atoms: _469  and  _471
REMARK  205  A    between atoms: _471  and  _472
REMARK  206  A    between atoms: _471  and  _474
REMARK  207  A    between atoms: _474  and  _475
REMARK  208  A    between atoms: _480  and  _482
REMARK  209  A    between atoms: _482  and  _483
REMARK  210  A    between atoms: _482  and  _485
REMARK  211  A    between atoms: _485  and  _486
REMARK  212  A    between atoms: _489  and  _491
REMARK  213  A    between atoms: _491  and  _492
REMARK  214  A    between atoms: _491  and  _494
REMARK  215  A    between atoms: _494  and  _495
REMARK  216  A    between atoms: _498  and  _500
REMARK  217  A    between atoms: _500  and  _501
REMARK  218  A    between atoms: _500  and  _503
REMARK  219  A    between atoms: _503  and  _504
REMARK  220  A    between atoms: _507  and  _509
REMARK  221  A    between atoms: _509  and  _510
REMARK  222  A    between atoms: _509  and  _512
REMARK  223  A    between atoms: _512  and  _513
REMARK  224  A    between atoms: _513  and  _514
REMARK  225  A    between atoms: _519  and  _521
REMARK  226  A    between atoms: _521  and  _522
REMARK  227  A    between atoms: _521  and  _524
REMARK  228  A    between atoms: _527  and  _529
REMARK  229  A    between atoms: _529  and  _530
REMARK  230  A    between atoms: _529  and  _532
REMARK  231  A    between atoms: _532  and  _533
REMARK  232  A    between atoms: _536  and  _538
REMARK  233  A    between atoms: _538  and  _539
REMARK  234  A    between atoms: _538  and  _541
REMARK  235  A    between atoms: _541  and  _542
REMARK  236  A    between atoms: _545  and  _547
REMARK  237  A    between atoms: _547  and  _548
REMARK  238  A    between atoms: _547  and  _550
REMARK  239  A    between atoms: _550  and  _551
REMARK  240  A    between atoms: _557  and  _559
REMARK  241  A    between atoms: _559  and  _560
REMARK  242  A    between atoms: _562  and  _564
REMARK  243  A    between atoms: _564  and  _565
REMARK  244  A    between atoms: _564  and  _567
REMARK  245  A    between atoms: _567  and  _568
REMARK  246  A    between atoms: _574  and  _576
REMARK  247  A    between atoms: _576  and  _577
REMARK  248  A    between atoms: _576  and  _579
REMARK  249  A    between atoms: _581  and  _583
REMARK  250  A    between atoms: _583  and  _584
REMARK  251  A    between atoms: _586  and  _588
REMARK  252  A    between atoms: _588  and  _589
REMARK  253  A    between atoms: _588  and  _591
REMARK  254  A    between atoms: _591  and  _592
REMARK  255  A    between atoms: _596  and  _597
REMARK  256  A    between atoms: _602  and  _604
REMARK  257  A    between atoms: _604  and  _605
REMARK  258  A    between atoms: _604  and  _607
REMARK  259  A    between atoms: _607  and  _608
REMARK  260  A    between atoms: _613  and  _614
REMARK  261  A    between atoms: _616  and  _618
REMARK  262  A    between atoms: _618  and  _619
REMARK  263  A    between atoms: _618  and  _621
REMARK  264  A    between atoms: _621  and  _622
REMARK  265  A    between atoms: _625  and  _627
REMARK  266  A    between atoms: _627  and  _628
REMARK  267  A    between atoms: _627  and  _630
REMARK  268  A    between atoms: _630  and  _631
REMARK  269  A    between atoms: _636  and  _638
REMARK  270  A    between atoms: _638  and  _639
REMARK  271  A    between atoms: _638  and  _641
REMARK  272  A    between atoms: _641  and  _642
REMARK  273  A    between atoms: _648  and  _650
REMARK  274  A    between atoms: _650  and  _651
REMARK  275  A    between atoms: _650  and  _653
REMARK  276  A    between atoms: _653  and  _654
REMARK  277  A    between atoms: _657  and  _659
REMARK  278  A    between atoms: _659  and  _660
REMARK  279  A    between atoms: _659  and  _662
REMARK  280  A    between atoms: _662  and  _663
REMARK  281  A    between atoms: _668  and  _669
REMARK  282  A    between atoms: _671  and  _673
REMARK  283  A    between atoms: _673  and  _674
REMARK  284  A    between atoms: _673  and  _676
REMARK  285  A    between atoms: _676  and  _677
REMARK  286  A    between atoms: _677  and  _678
REMARK                            x       y       z     vdW  Elec       q    Type
REMARK                         _______ _______ _______ _____ _____    ______ ____
ROOT
ATOM      1  O   HOH     1      38.633  10.575  13.542  0.00  0.00    +0.000 OA
ENDROOT
TORSDOF 0
REMARK  Name = ../refined-set-2016/3bwj/3bwj_pocket.pdb
REMARK  286 active torsions:
REMARK  status: ('A' for Active; 'I' for Inactive)
REMARK    1  A    between atoms: _1  and  _3
REMARK    2  A    between atoms: _3  and  _4
REMARK    3  A    between atoms: _3  and  _6
REMARK    4  A    between atoms: _6  and  _7
REMARK    5  A    between atoms: _10  and  _12
REMARK    6  A    between atoms: _12  and  _13
REMARK    7  A    between atoms: _12  and  _15
REMARK    8  A    between atoms: _15  and  _16
REMARK    9  A    between atoms: _19  and  _21
REMARK   10  A    between atoms: _21  and  _22
REMARK   11  A    between atoms: _24  and  _26
REMARK   12  A    between atoms: _26  and  _27
REMARK   13  A    between atoms: _26  and  _29
REMARK   14  A    between atoms: _29  and  _30
REMARK   15  A    between atoms: _33  and  _35
REMARK   16  A    between atoms: _35  and  _36
REMARK   17  A    between atoms: _38  and  _40
REMARK   18  A    between atoms: _40  and  _41
REMARK   19  A    between atoms: _40  and  _43
REMARK   20  A    between atoms: _43  and  _44
REMARK   21  A    between atoms: _46  and  _48
REMARK   22  A    between atoms: _48  and  _49
REMARK   23  A    between atoms: _48  and  _51
REMARK   24  A    between atoms: _51  and  _52
REMARK   25  A    between atoms: _58  and  _60
REMARK   26  A    between atoms: _60  and  _61
REMARK   27  A    between atoms: _63  and  _65
REMARK   28  A    between atoms: _65  and  _66
REMARK   29  A    between atoms: _65  and  _68
REMARK   30  A    between atoms: _68  and  _69
REMARK   31  A    between atoms: _69  and  _70
REMARK   32  A    between atoms: _70  and  _71
REMARK   33  A    between atoms: _80  and  _82
REMARK   34  A    between atoms: _82  and  _83
REMARK   35  A    between atoms: _82  and  _85
REMARK   36  A    between atoms: _88  and  _90
REMARK   37  A    between atoms: _90  and  _91
REMARK   38  A    between atoms: _90  and  _93
REMARK   39  A    between atoms: _93  and  _94
REMARK   40  A    between atoms: _94  and  _95
REMARK   41  A    between atoms: _97  and  _99
REMARK   42  A    between atoms: _99  and  _100
REMARK   43  A    between atoms: _99  and  _102
REMARK   44  A    between atoms: _102  and  _103
REMARK   45  A    between atoms: _106  and  _108
REMARK   46  A    between atoms: _108  and  _109
REMARK   47  A    between atoms: _108  and  _111
REMARK   48  A    between atoms: _111  and  _112
REMARK   49  A    between atoms: _117  and  _118
REMARK   50  A    between atoms: _120  and  _122
REMARK   51  A    between atoms: _122  and  _123
REMARK   52  A    between atoms: _126  and  _128
REMARK   53  A    between atoms: _128  and  _129
REMARK   54  A    between atoms: _128  and  _131
REMARK   55  A    between atoms: _131  and  _132
REMARK   56  A    between atoms: _132  and  _133
REMARK   57  A    between atoms: _135  and  _137
REMARK   58  A    between atoms: _137  and  _138
REMARK   59  A    between atoms: _137  and  _140
REMARK   60  A    between atoms: _140  and  _141
REMARK   61  A    between atoms: _141  and  _142
REMARK   62  A    between atoms: _142  and  _143
REMARK   63  A    between atoms: _143  and  _144
REMARK   64  A    between atoms: _148  and  _150
REMARK   65  A    between atoms: _150  and  _151
REMARK   66  A    between atoms: _150  and  _153
REMARK   67  A    between atoms: _153  and  _154
REMARK   68  A    between atoms: _157  and  _159
REMARK   69  A    between atoms: _159  and  _160
REMARK   70  A    between atoms: _159  and  _162
REMARK   71  A    between atoms: _162  and  _163
REMARK   72  A    between atoms: _166  and  _168
REMARK   73  A    between atoms: _168  and  _169
REMARK   74  A    between atoms: _168  and  _171
REMARK   75  A    between atoms: _171  and  _172
REMARK   76  A    between atoms: _175  and  _177
REMARK   77  A    between atoms: _177  and  _178
REMARK   78  A    between atoms: _177  and  _180
REMARK   79  A    between atoms: _180  and  _181
REMARK   80  A    between atoms: _181  and  _182
REMARK   81  A    between atoms: _182  and  _183
REMARK   82  A    between atoms: _183  and  _184
REMARK   83  A    between atoms: _188  and  _190
REMARK   84  A    between atoms: _190  and  _191
REMARK   85  A    between atoms: _190  and  _193
REMARK   86  A    between atoms: _196  and  _198
REMARK   87  A    between atoms: _198  and  _199
REMARK   88  A    between atoms: _198  and  _201
REMARK   89  A    between atoms: _201  and  _202
REMARK   90  A    between atoms: _205  and  _207
REMARK   91  A    between atoms: _207  and  _208
REMARK   92  A    between atoms: _207  and  _210
REMARK   93  A    between atoms: _210  and  _211
REMARK   94  A    between atoms: _211  and  _212
REMARK   95  A    between atoms: _217  and  _219
REMARK   96  A    between atoms: _219  and  _220
REMARK   97  A    between atoms: _219  and  _222
REMARK   98  A    between atoms: _222  and  _223
REMARK   99  A    between atoms: _226  and  _228
REMARK  100  A    between atoms: _228  and  _229
REMARK  101  A    between atoms: _228  and  _231
REMARK  102  A    between atoms: _231  and  _232
REMARK  103  A    between atoms: _232  and  _233
REMARK  104  A    between atoms: _236  and  _238
REMARK  105  A    between atoms: _238  and  _239
REMARK  106  A    between atoms: _238  and  _241
REMARK  107  A    between atoms: _244  and  _246
REMARK  108  A    between atoms: _246  and  _247
REMARK  109  A    between atoms: _246  and  _249
REMARK  110  A    between atoms: _249  and  _250
REMARK  111  A    between atoms: _250  and  _251
REMARK  112  A    between atoms: _251  and  _252
REMARK  113  A    between atoms: _252  and  _253
REMARK  114  A    between atoms: _257  and  _259
REMARK  115  A    between atoms: _259  and  _260
REMARK  116  A    between atoms: _259  and  _262
REMARK  117  A    between atoms: _262  and  _263
REMARK  118  A    between atoms: _266  and  _268
REMARK  119  A    between atoms: _268  and  _269
REMARK  120  A    between atoms: _268  and  _271
REMARK  121  A    between atoms: _271  and  _272
REMARK  122  A    between atoms: _272  and  _273
REMARK  123  A    between atoms: _276  and  _278
REMARK  124  A    between atoms: _278  and  _279
REMARK  125  A    between atoms: _278  and  _281
REMARK  126  A    between atoms: _281  and  _282
REMARK  127  A    between atoms: _282  and  _283
REMARK  128  A    between atoms: _285  and  _287
REMARK  129  A    between atoms: _287  and  _288
REMARK  130  A    between atoms: _287  and  _290
REMARK  131  A    between atoms: _293  and  _295
REMARK  132  A    between atoms: _295  and  _296
REMARK  133  A    between atoms: _295  and  _298
REMARK  134  A    between atoms: _298  and  _299
REMARK  135  A    between atoms: _299  and  _300
REMARK  136  A    between atoms: _302  and  _304
REMARK  137  A    between atoms: _304  and  _305
REMARK  138  A    between atoms: _304  and  _307
REMARK  139  A    between atoms: _307  and  _308
REMARK  140  A    between atoms: _308  and  _309
REMARK  141  A    between atoms: _312  and  _314
REMARK  142  A    between atoms: _314  and  _315
REMARK  143  A    between atoms: _314  and  _317
REMARK  144  A    between atoms: _317  and  _318
REMARK  145  A    between atoms: _323  and  _324
REMARK  146  A    between atoms: _326  and  _328
REMARK  147  A    between atoms: _328  and  _329
REMARK  148  A    between atoms: _328  and  _331
REMARK  149  A    between atoms: _335  and  _336
REMARK  150  A    between atoms: _341  and  _343
REMARK  151  A    between atoms: _343  and  _344
REMARK  152  A    between atoms: _346  and  _348
REMARK  153  A    between atoms: _348  and  _349
REMARK  154  A    between atoms: _351  and  _353
REMARK  155  A    between atoms: _353  and  _354
REMARK  156  A    between atoms: _353  and  _356
REMARK  157  A    between atoms: _356  and  _357
REMARK  158  A    between atoms: _357  and  _358
REMARK  159  A    between atoms: _361  and  _363
REMARK  160  A    between atoms: _363  and  _364
REMARK  161  A    between atoms: _363  and  _366
REMARK  162  A    between atoms: _366  and  _367
REMARK  163  A    between atoms: _367  and  _368
REMARK  164  A    between atoms: _370  and  _372
REMARK  165  A    between atoms: _372  and  _373
REMARK  166  A    between atoms: _372  and  _375
REMARK  167  A    between atoms: _375  and  _376
REMARK  168  A    between atoms: _382  and  _384
REMARK  169  A    between atoms: _384  and  _385
REMARK  170  A    between atoms: _384  and  _387
REMARK  171  A    between atoms: _387  and  _388
REMARK  172  A    between atoms: _390  and  _392
REMARK  173  A    between atoms: _392  and  _393
REMARK  174  A    between atoms: _392  and  _395
REMARK  175  A    between atoms: _395  and  _396
REMARK  176  A    between atoms: _401  and  _402
REMARK  177  A    between atoms: _404  and  _406
REMARK  178  A    between atoms: _406  and  _407
REMARK  179  A    between atoms: _406  and  _409
REMARK  180  A    between atoms: _409  and  _410
REMARK  181  A    between atoms: _410  and  _411
REMARK  182  A    between atoms: _411  and  _412
REMARK  183  A    between atoms: _421  and  _423
REMARK  184  A    between atoms: _423  and  _424
REMARK  185  A    between atoms: _423  and  _426
REMARK  186  A    between atoms: _426  and  _427
REMARK  187  A    between atoms: _430  and  _432
REMARK  188  A    between atoms: _432  and  _433
REMARK  189  A    between atoms: _432  and  _435
REMARK  190  A    between atoms: _435  and  _436
REMARK  191  A    between atoms: _439  and  _441
REMARK  192  A    between atoms: _441  and  _442
REMARK  193  A    between atoms: _441  and  _444
REMARK  194  A    between atoms: _444  and  _445
REMARK  195  A    between atoms: _445  and  _446
REMARK  196  A    between atoms: _446  and  _447
REMARK  197  A    between atoms: _447  and  _448
REMARK  198  A    between atoms: _453  and  _454
REMARK  199  A    between atoms: _459  and  _461
REMARK  200  A    between atoms: _461  and  _462
REMARK  201  A    between atoms: _461  and  _464
REMARK  202  A    between atoms: _464  and  _465
REMARK  203  A    between atoms: _465  and  _466
REMARK  204  A    between atoms: _469  and  _471
REMARK  205  A    between atoms: _471  and  _472
REMARK  206  A    between atoms: _471  and  _474
REMARK  207  A    between atoms: _474  and  _475
REMARK  208  A    between atoms: _480  and  _482
REMARK  209  A    between atoms: _482  and  _483
REMARK  210  A    between atoms: _482  and  _485
REMARK  211  A    between atoms: _485  and  _486
REMARK  212  A    between atoms: _489  and  _491
REMARK  213  A    between atoms: _491  and  _492
REMARK  214  A    between atoms: _491  and  _494
REMARK  215  A    between atoms: _494  and  _495
REMARK  216  A    between atoms: _498  and  _500
REMARK  217  A    between atoms: _500  and  _501
REMARK  218  A    between atoms: _500  and  _503
REMARK  219  A    between atoms: _503  and  _504
REMARK  220  A    between atoms: _507  and  _509
REMARK  221  A    between atoms: _509  and  _510
REMARK  222  A    between atoms: _509  and  _512
REMARK  223  A    between atoms: _512  and  _513
REMARK  224  A    between atoms: _513  and  _514
REMARK  225  A    between atoms: _519  and  _521
REMARK  226  A    between atoms: _521  and  _522
REMARK  227  A    between atoms: _521  and  _524
REMARK  228  A    between atoms: _527  and  _529
REMARK  229  A    between atoms: _529  and  _530
REMARK  230  A    between atoms: _529  and  _532
REMARK  231  A    between atoms: _532  and  _533
REMARK  232  A    between atoms: _536  and  _538
REMARK  233  A    between atoms: _538  and  _539
REMARK  234  A    between atoms: _538  and  _541
REMARK  235  A    between atoms: _541  and  _542
REMARK  236  A    between atoms: _545  and  _547
REMARK  237  A    between atoms: _547  and  _548
REMARK  238  A    between atoms: _547  and  _550
REMARK  239  A    between atoms: _550  and  _551
REMARK  240  A    between atoms: _557  and  _559
REMARK  241  A    between atoms: _559  and  _560
REMARK  242  A    between atoms: _562  and  _564
REMARK  243  A    between atoms: _564  and  _565
REMARK  244  A    between atoms: _564  and  _567
REMARK  245  A    between atoms: _567  and  _568
REMARK  246  A    between atoms: _574  and  _576
REMARK  247  A    between atoms: _576  and  _577
REMARK  248  A    between atoms: _576  and  _579
REMARK  249  A    between atoms: _581  and  _583
REMARK  250  A    between atoms: _583  and  _584
REMARK  251  A    between atoms: _586  and  _588
REMARK  252  A    between atoms: _588  and  _589
REMARK  253  A    between atoms: _588  and  _591
REMARK  254  A    between atoms: _591  and  _592
REMARK  255  A    between atoms: _596  and  _597
REMARK  256  A    between atoms: _602  and  _604
REMARK  257  A    between atoms: _604  and  _605
REMARK  258  A    between atoms: _604  and  _607
REMARK  259  A    between atoms: _607  and  _608
REMARK  260  A    between atoms: _613  and  _614
REMARK  261  A    between atoms: _616  and  _618
REMARK  262  A    between atoms: _618  and  _619
REMARK  263  A    between atoms: _618  and  _621
REMARK  264  A    between atoms: _621  and  _622
REMARK  265  A    between atoms: _625  and  _627
REMARK  266  A    between atoms: _627  and  _628
REMARK  267  A    between atoms: _627  and  _630
REMARK  268  A    between atoms: _630  and  _631
REMARK  269  A    between atoms: _636  and  _638
REMARK  270  A    between atoms: _638  and  _639
REMARK  271  A    between atoms: _638  and  _641
REMARK  272  A    between atoms: _641  and  _642
REMARK  273  A    between atoms: _648  and  _650
REMARK  274  A    between atoms: _650  and  _651
REMARK  275  A    between atoms: _650  and  _653
REMARK  276  A    between atoms: _653  and  _654
REMARK  277  A    between atoms: _657  and  _659
REMARK  278  A    between atoms: _659  and  _660
REMARK  279  A    between atoms: _659  and  _662
REMARK  280  A    between atoms: _662  and  _663
REMARK  281  A    between atoms: _668  and  _669
REMARK  282  A    between atoms: _671  and  _673
REMARK  283  A    between atoms: _673  and  _674
REMARK  284  A    between atoms: _673  and  _676
REMARK  285  A    between atoms: _676  and  _677
REMARK  286  A    between atoms: _677  and  _678
REMARK                            x       y       z     vdW  Elec       q    Type
REMARK                         _______ _______ _______ _____ _____    ______ ____
ROOT
ATOM      1  O   HOH     1      34.538  15.991  11.779  0.00  0.00    +0.000 OA
ENDROOT
TORSDOF 0
REMARK  Name = ../refined-set-2016/3bwj/3bwj_pocket.pdb
REMARK  286 active torsions:
REMARK  status: ('A' for Active; 'I' for Inactive)
REMARK    1  A    between atoms: _1  and  _3
REMARK    2  A    between atoms: _3  and  _4
REMARK    3  A    between atoms: _3  and  _6
REMARK    4  A    between atoms: _6  and  _7
REMARK    5  A    between atoms: _10  and  _12
REMARK    6  A    between atoms: _12  and  _13
REMARK    7  A    between atoms: _12  and  _15
REMARK    8  A    between atoms: _15  and  _16
REMARK    9  A    between atoms: _19  and  _21
REMARK   10  A    between atoms: _21  and  _22
REMARK   11  A    between atoms: _24  and  _26
REMARK   12  A    between atoms: _26  and  _27
REMARK   13  A    between atoms: _26  and  _29
REMARK   14  A    between atoms: _29  and  _30
REMARK   15  A    between atoms: _33  and  _35
REMARK   16  A    between atoms: _35  and  _36
REMARK   17  A    between atoms: _38  and  _40
REMARK   18  A    between atoms: _40  and  _41
REMARK   19  A    between atoms: _40  and  _43
REMARK   20  A    between atoms: _43  and  _44
REMARK   21  A    between atoms: _46  and  _48
REMARK   22  A    between atoms: _48  and  _49
REMARK   23  A    between atoms: _48  and  _51
REMARK   24  A    between atoms: _51  and  _52
REMARK   25  A    between atoms: _58  and  _60
REMARK   26  A    between atoms: _60  and  _61
REMARK   27  A    between atoms: _63  and  _65
REMARK   28  A    between atoms: _65  and  _66
REMARK   29  A    between atoms: _65  and  _68
REMARK   30  A    between atoms: _68  and  _69
REMARK   31  A    between atoms: _69  and  _70
REMARK   32  A    between atoms: _70  and  _71
REMARK   33  A    between atoms: _80  and  _82
REMARK   34  A    between atoms: _82  and  _83
REMARK   35  A    between atoms: _82  and  _85
REMARK   36  A    between atoms: _88  and  _90
REMARK   37  A    between atoms: _90  and  _91
REMARK   38  A    between atoms: _90  and  _93
REMARK   39  A    between atoms: _93  and  _94
REMARK   40  A    between atoms: _94  and  _95
REMARK   41  A    between atoms: _97  and  _99
REMARK   42  A    between atoms: _99  and  _100
REMARK   43  A    between atoms: _99  and  _102
REMARK   44  A    between atoms: _102  and  _103
REMARK   45  A    between atoms: _106  and  _108
REMARK   46  A    between atoms: _108  and  _109
REMARK   47  A    between atoms: _108  and  _111
REMARK   48  A    between atoms: _111  and  _112
REMARK   49  A    between atoms: _117  and  _118
REMARK   50  A    between atoms: _120  and  _122
REMARK   51  A    between atoms: _122  and  _123
REMARK   52  A    between atoms: _126  and  _128
REMARK   53  A    between atoms: _128  and  _129
REMARK   54  A    between atoms: _128  and  _131
REMARK   55  A    between atoms: _131  and  _132
REMARK   56  A    between atoms: _132  and  _133
REMARK   57  A    between atoms: _135  and  _137
REMARK   58  A    between atoms: _137  and  _138
REMARK   59  A    between atoms: _137  and  _140
REMARK   60  A    between atoms: _140  and  _141
REMARK   61  A    between atoms: _141  and  _142
REMARK   62  A    between atoms: _142  and  _143
REMARK   63  A    between atoms: _143  and  _144
REMARK   64  A    between atoms: _148  and  _150
REMARK   65  A    between atoms: _150  and  _151
REMARK   66  A    between atoms: _150  and  _153
REMARK   67  A    between atoms: _153  and  _154
REMARK   68  A    between atoms: _157  and  _159
REMARK   69  A    between atoms: _159  and  _160
REMARK   70  A    between atoms: _159  and  _162
REMARK   71  A    between atoms: _162  and  _163
REMARK   72  A    between atoms: _166  and  _168
REMARK   73  A    between atoms: _168  and  _169
REMARK   74  A    between atoms: _168  and  _171
REMARK   75  A    between atoms: _171  and  _172
REMARK   76  A    between atoms: _175  and  _177
REMARK   77  A    between atoms: _177  and  _178
REMARK   78  A    between atoms: _177  and  _180
REMARK   79  A    between atoms: _180  and  _181
REMARK   80  A    between atoms: _181  and  _182
REMARK   81  A    between atoms: _182  and  _183
REMARK   82  A    between atoms: _183  and  _184
REMARK   83  A    between atoms: _188  and  _190
REMARK   84  A    between atoms: _190  and  _191
REMARK   85  A    between atoms: _190  and  _193
REMARK   86  A    between atoms: _196  and  _198
REMARK   87  A    between atoms: _198  and  _199
REMARK   88  A    between atoms: _198  and  _201
REMARK   89  A    between atoms: _201  and  _202
REMARK   90  A    between atoms: _205  and  _207
REMARK   91  A    between atoms: _207  and  _208
REMARK   92  A    between atoms: _207  and  _210
REMARK   93  A    between atoms: _210  and  _211
REMARK   94  A    between atoms: _211  and  _212
REMARK   95  A    between atoms: _217  and  _219
REMARK   96  A    between atoms: _219  and  _220
REMARK   97  A    between atoms: _219  and  _222
REMARK   98  A    between atoms: _222  and  _223
REMARK   99  A    between atoms: _226  and  _228
REMARK  100  A    between atoms: _228  and  _229
REMARK  101  A    between atoms: _228  and  _231
REMARK  102  A    between atoms: _231  and  _232
REMARK  103  A    between atoms: _232  and  _233
REMARK  104  A    between atoms: _236  and  _238
REMARK  105  A    between atoms: _238  and  _239
REMARK  106  A    between atoms: _238  and  _241
REMARK  107  A    between atoms: _244  and  _246
REMARK  108  A    between atoms: _246  and  _247
REMARK  109  A    between atoms: _246  and  _249
REMARK  110  A    between atoms: _249  and  _250
REMARK  111  A    between atoms: _250  and  _251
REMARK  112  A    between atoms: _251  and  _252
REMARK  113  A    between atoms: _252  and  _253
REMARK  114  A    between atoms: _257  and  _259
REMARK  115  A    between atoms: _259  and  _260
REMARK  116  A    between atoms: _259  and  _262
REMARK  117  A    between atoms: _262  and  _263
REMARK  118  A    between atoms: _266  and  _268
REMARK  119  A    between atoms: _268  and  _269
REMARK  120  A    between atoms: _268  and  _271
REMARK  121  A    between atoms: _271  and  _272
REMARK  122  A    between atoms: _272  and  _273
REMARK  123  A    between atoms: _276  and  _278
REMARK  124  A    between atoms: _278  and  _279
REMARK  125  A    between atoms: _278  and  _281
REMARK  126  A    between atoms: _281  and  _282
REMARK  127  A    between atoms: _282  and  _283
REMARK  128  A    between atoms: _285  and  _287
REMARK  129  A    between atoms: _287  and  _288
REMARK  130  A    between atoms: _287  and  _290
REMARK  131  A    between atoms: _293  and  _295
REMARK  132  A    between atoms: _295  and  _296
REMARK  133  A    between atoms: _295  and  _298
REMARK  134  A    between atoms: _298  and  _299
REMARK  135  A    between atoms: _299  and  _300
REMARK  136  A    between atoms: _302  and  _304
REMARK  137  A    between atoms: _304  and  _305
REMARK  138  A    between atoms: _304  and  _307
REMARK  139  A    between atoms: _307  and  _308
REMARK  140  A    between atoms: _308  and  _309
REMARK  141  A    between atoms: _312  and  _314
REMARK  142  A    between atoms: _314  and  _315
REMARK  143  A    between atoms: _314  and  _317
REMARK  144  A    between atoms: _317  and  _318
REMARK  145  A    between atoms: _323  and  _324
REMARK  146  A    between atoms: _326  and  _328
REMARK  147  A    between atoms: _328  and  _329
REMARK  148  A    between atoms: _328  and  _331
REMARK  149  A    between atoms: _335  and  _336
REMARK  150  A    between atoms: _341  and  _343
REMARK  151  A    between atoms: _343  and  _344
REMARK  152  A    between atoms: _346  and  _348
REMARK  153  A    between atoms: _348  and  _349
REMARK  154  A    between atoms: _351  and  _353
REMARK  155  A    between atoms: _353  and  _354
REMARK  156  A    between atoms: _353  and  _356
REMARK  157  A    between atoms: _356  and  _357
REMARK  158  A    between atoms: _357  and  _358
REMARK  159  A    between atoms: _361  and  _363
REMARK  160  A    between atoms: _363  and  _364
REMARK  161  A    between atoms: _363  and  _366
REMARK  162  A    between atoms: _366  and  _367
REMARK  163  A    between atoms: _367  and  _368
REMARK  164  A    between atoms: _370  and  _372
REMARK  165  A    between atoms: _372  and  _373
REMARK  166  A    between atoms: _372  and  _375
REMARK  167  A    between atoms: _375  and  _376
REMARK  168  A    between atoms: _382  and  _384
REMARK  169  A    between atoms: _384  and  _385
REMARK  170  A    between atoms: _384  and  _387
REMARK  171  A    between atoms: _387  and  _388
REMARK  172  A    between atoms: _390  and  _392
REMARK  173  A    between atoms: _392  and  _393
REMARK  174  A    between atoms: _392  and  _395
REMARK  175  A    between atoms: _395  and  _396
REMARK  176  A    between atoms: _401  and  _402
REMARK  177  A    between atoms: _404  and  _406
REMARK  178  A    between atoms: _406  and  _407
REMARK  179  A    between atoms: _406  and  _409
REMARK  180  A    between atoms: _409  and  _410
REMARK  181  A    between atoms: _410  and  _411
REMARK  182  A    between atoms: _411  and  _412
REMARK  183  A    between atoms: _421  and  _423
REMARK  184  A    between atoms: _423  and  _424
REMARK  185  A    between atoms: _423  and  _426
REMARK  186  A    between atoms: _426  and  _427
REMARK  187  A    between atoms: _430  and  _432
REMARK  188  A    between atoms: _432  and  _433
REMARK  189  A    between atoms: _432  and  _435
REMARK  190  A    between atoms: _435  and  _436
REMARK  191  A    between atoms: _439  and  _441
REMARK  192  A    between atoms: _441  and  _442
REMARK  193  A    between atoms: _441  and  _444
REMARK  194  A    between atoms: _444  and  _445
REMARK  195  A    between atoms: _445  and  _446
REMARK  196  A    between atoms: _446  and  _447
REMARK  197  A    between atoms: _447  and  _448
REMARK  198  A    between atoms: _453  and  _454
REMARK  199  A    between atoms: _459  and  _461
REMARK  200  A    between atoms: _461  and  _462
REMARK  201  A    between atoms: _461  and  _464
REMARK  202  A    between atoms: _464  and  _465
REMARK  203  A    between atoms: _465  and  _466
REMARK  204  A    between atoms: _469  and  _471
REMARK  205  A    between atoms: _471  and  _472
REMARK  206  A    between atoms: _471  and  _474
REMARK  207  A    between atoms: _474  and  _475
REMARK  208  A    between atoms: _480  and  _482
REMARK  209  A    between atoms: _482  and  _483
REMARK  210  A    between atoms: _482  and  _485
REMARK  211  A    between atoms: _485  and  _486
REMARK  212  A    between atoms: _489  and  _491
REMARK  213  A    between atoms: _491  and  _492
REMARK  214  A    between atoms: _491  and  _494
REMARK  215  A    between atoms: _494  and  _495
REMARK  216  A    between atoms: _498  and  _500
REMARK  217  A    between atoms: _500  and  _501
REMARK  218  A    between atoms: _500  and  _503
REMARK  219  A    between atoms: _503  and  _504
REMARK  220  A    between atoms: _507  and  _509
REMARK  221  A    between atoms: _509  and  _510
REMARK  222  A    between atoms: _509  and  _512
REMARK  223  A    between atoms: _512  and  _513
REMARK  224  A    between atoms: _513  and  _514
REMARK  225  A    between atoms: _519  and  _521
REMARK  226  A    between atoms: _521  and  _522
REMARK  227  A    between atoms: _521  and  _524
REMARK  228  A    between atoms: _527  and  _529
REMARK  229  A    between atoms: _529  and  _530
REMARK  230  A    between atoms: _529  and  _532
REMARK  231  A    between atoms: _532  and  _533
REMARK  232  A    between atoms: _536  and  _538
REMARK  233  A    between atoms: _538  and  _539
REMARK  234  A    between atoms: _538  and  _541
REMARK  235  A    between atoms: _541  and  _542
REMARK  236  A    between atoms: _545  and  _547
REMARK  237  A    between atoms: _547  and  _548
REMARK  238  A    between atoms: _547  and  _550
REMARK  239  A    between atoms: _550  and  _551
REMARK  240  A    between atoms: _557  and  _559
REMARK  241  A    between atoms: _559  and  _560
REMARK  242  A    between atoms: _562  and  _564
REMARK  243  A    between atoms: _564  and  _565
REMARK  244  A    between atoms: _564  and  _567
REMARK  245  A    between atoms: _567  and  _568
REMARK  246  A    between atoms: _574  and  _576
REMARK  247  A    between atoms: _576  and  _577
REMARK  248  A    between atoms: _576  and  _579
REMARK  249  A    between atoms: _581  and  _583
REMARK  250  A    between atoms: _583  and  _584
REMARK  251  A    between atoms: _586  and  _588
REMARK  252  A    between atoms: _588  and  _589
REMARK  253  A    between atoms: _588  and  _591
REMARK  254  A    between atoms: _591  and  _592
REMARK  255  A    between atoms: _596  and  _597
REMARK  256  A    between atoms: _602  and  _604
REMARK  257  A    between atoms: _604  and  _605
REMARK  258  A    between atoms: _604  and  _607
REMARK  259  A    between atoms: _607  and  _608
REMARK  260  A    between atoms: _613  and  _614
REMARK  261  A    between atoms: _616  and  _618
REMARK  262  A    between atoms: _618  and  _619
REMARK  263  A    between atoms: _618  and  _621
REMARK  264  A    between atoms: _621  and  _622
REMARK  265  A    between atoms: _625  and  _627
REMARK  266  A    between atoms: _627  and  _628
REMARK  267  A    between atoms: _627  and  _630
REMARK  268  A    between atoms: _630  and  _631
REMARK  269  A    between atoms: _636  and  _638
REMARK  270  A    between atoms: _638  and  _639
REMARK  271  A    between atoms: _638  and  _641
REMARK  272  A    between atoms: _641  and  _642
REMARK  273  A    between atoms: _648  and  _650
REMARK  274  A    between atoms: _650  and  _651
REMARK  275  A    between atoms: _650  and  _653
REMARK  276  A    between atoms: _653  and  _654
REMARK  277  A    between atoms: _657  and  _659
REMARK  278  A    between atoms: _659  and  _660
REMARK  279  A    between atoms: _659  and  _662
REMARK  280  A    between atoms: _662  and  _663
REMARK  281  A    between atoms: _668  and  _669
REMARK  282  A    between atoms: _671  and  _673
REMARK  283  A    between atoms: _673  and  _674
REMARK  284  A    between atoms: _673  and  _676
REMARK  285  A    between atoms: _676  and  _677
REMARK  286  A    between atoms: _677  and  _678
REMARK                            x       y       z     vdW  Elec       q    Type
REMARK                         _______ _______ _______ _____ _____    ______ ____
ROOT
ATOM      1  O   HOH     1      36.159  24.502  16.861  0.00  0.00    +0.000 OA
ENDROOT
TORSDOF 0
REMARK  Name = ../refined-set-2016/3bwj/3bwj_pocket.pdb
REMARK  286 active torsions:
REMARK  status: ('A' for Active; 'I' for Inactive)
REMARK    1  A    between atoms: _1  and  _3
REMARK    2  A    between atoms: _3  and  _4
REMARK    3  A    between atoms: _3  and  _6
REMARK    4  A    between atoms: _6  and  _7
REMARK    5  A    between atoms: _10  and  _12
REMARK    6  A    between atoms: _12  and  _13
REMARK    7  A    between atoms: _12  and  _15
REMARK    8  A    between atoms: _15  and  _16
REMARK    9  A    between atoms: _19  and  _21
REMARK   10  A    between atoms: _21  and  _22
REMARK   11  A    between atoms: _24  and  _26
REMARK   12  A    between atoms: _26  and  _27
REMARK   13  A    between atoms: _26  and  _29
REMARK   14  A    between atoms: _29  and  _30
REMARK   15  A    between atoms: _33  and  _35
REMARK   16  A    between atoms: _35  and  _36
REMARK   17  A    between atoms: _38  and  _40
REMARK   18  A    between atoms: _40  and  _41
REMARK   19  A    between atoms: _40  and  _43
REMARK   20  A    between atoms: _43  and  _44
REMARK   21  A    between atoms: _46  and  _48
REMARK   22  A    between atoms: _48  and  _49
REMARK   23  A    between atoms: _48  and  _51
REMARK   24  A    between atoms: _51  and  _52
REMARK   25  A    between atoms: _58  and  _60
REMARK   26  A    between atoms: _60  and  _61
REMARK   27  A    between atoms: _63  and  _65
REMARK   28  A    between atoms: _65  and  _66
REMARK   29  A    between atoms: _65  and  _68
REMARK   30  A    between atoms: _68  and  _69
REMARK   31  A    between atoms: _69  and  _70
REMARK   32  A    between atoms: _70  and  _71
REMARK   33  A    between atoms: _80  and  _82
REMARK   34  A    between atoms: _82  and  _83
REMARK   35  A    between atoms: _82  and  _85
REMARK   36  A    between atoms: _88  and  _90
REMARK   37  A    between atoms: _90  and  _91
REMARK   38  A    between atoms: _90  and  _93
REMARK   39  A    between atoms: _93  and  _94
REMARK   40  A    between atoms: _94  and  _95
REMARK   41  A    between atoms: _97  and  _99
REMARK   42  A    between atoms: _99  and  _100
REMARK   43  A    between atoms: _99  and  _102
REMARK   44  A    between atoms: _102  and  _103
REMARK   45  A    between atoms: _106  and  _108
REMARK   46  A    between atoms: _108  and  _109
REMARK   47  A    between atoms: _108  and  _111
REMARK   48  A    between atoms: _111  and  _112
REMARK   49  A    between atoms: _117  and  _118
REMARK   50  A    between atoms: _120  and  _122
REMARK   51  A    between atoms: _122  and  _123
REMARK   52  A    between atoms: _126  and  _128
REMARK   53  A    between atoms: _128  and  _129
REMARK   54  A    between atoms: _128  and  _131
REMARK   55  A    between atoms: _131  and  _132
REMARK   56  A    between atoms: _132  and  _133
REMARK   57  A    between atoms: _135  and  _137
REMARK   58  A    between atoms: _137  and  _138
REMARK   59  A    between atoms: _137  and  _140
REMARK   60  A    between atoms: _140  and  _141
REMARK   61  A    between atoms: _141  and  _142
REMARK   62  A    between atoms: _142  and  _143
REMARK   63  A    between atoms: _143  and  _144
REMARK   64  A    between atoms: _148  and  _150
REMARK   65  A    between atoms: _150  and  _151
REMARK   66  A    between atoms: _150  and  _153
REMARK   67  A    between atoms: _153  and  _154
REMARK   68  A    between atoms: _157  and  _159
REMARK   69  A    between atoms: _159  and  _160
REMARK   70  A    between atoms: _159  and  _162
REMARK   71  A    between atoms: _162  and  _163
REMARK   72  A    between atoms: _166  and  _168
REMARK   73  A    between atoms: _168  and  _169
REMARK   74  A    between atoms: _168  and  _171
REMARK   75  A    between atoms: _171  and  _172
REMARK   76  A    between atoms: _175  and  _177
REMARK   77  A    between atoms: _177  and  _178
REMARK   78  A    between atoms: _177  and  _180
REMARK   79  A    between atoms: _180  and  _181
REMARK   80  A    between atoms: _181  and  _182
REMARK   81  A    between atoms: _182  and  _183
REMARK   82  A    between atoms: _183  and  _184
REMARK   83  A    between atoms: _188  and  _190
REMARK   84  A    between atoms: _190  and  _191
REMARK   85  A    between atoms: _190  and  _193
REMARK   86  A    between atoms: _196  and  _198
REMARK   87  A    between atoms: _198  and  _199
REMARK   88  A    between atoms: _198  and  _201
REMARK   89  A    between atoms: _201  and  _202
REMARK   90  A    between atoms: _205  and  _207
REMARK   91  A    between atoms: _207  and  _208
REMARK   92  A    between atoms: _207  and  _210
REMARK   93  A    between atoms: _210  and  _211
REMARK   94  A    between atoms: _211  and  _212
REMARK   95  A    between atoms: _217  and  _219
REMARK   96  A    between atoms: _219  and  _220
REMARK   97  A    between atoms: _219  and  _222
REMARK   98  A    between atoms: _222  and  _223
REMARK   99  A    between atoms: _226  and  _228
REMARK  100  A    between atoms: _228  and  _229
REMARK  101  A    between atoms: _228  and  _231
REMARK  102  A    between atoms: _231  and  _232
REMARK  103  A    between atoms: _232  and  _233
REMARK  104  A    between atoms: _236  and  _238
REMARK  105  A    between atoms: _238  and  _239
REMARK  106  A    between atoms: _238  and  _241
REMARK  107  A    between atoms: _244  and  _246
REMARK  108  A    between atoms: _246  and  _247
REMARK  109  A    between atoms: _246  and  _249
REMARK  110  A    between atoms: _249  and  _250
REMARK  111  A    between atoms: _250  and  _251
REMARK  112  A    between atoms: _251  and  _252
REMARK  113  A    between atoms: _252  and  _253
REMARK  114  A    between atoms: _257  and  _259
REMARK  115  A    between atoms: _259  and  _260
REMARK  116  A    between atoms: _259  and  _262
REMARK  117  A    between atoms: _262  and  _263
REMARK  118  A    between atoms: _266  and  _268
REMARK  119  A    between atoms: _268  and  _269
REMARK  120  A    between atoms: _268  and  _271
REMARK  121  A    between atoms: _271  and  _272
REMARK  122  A    between atoms: _272  and  _273
REMARK  123  A    between atoms: _276  and  _278
REMARK  124  A    between atoms: _278  and  _279
REMARK  125  A    between atoms: _278  and  _281
REMARK  126  A    between atoms: _281  and  _282
REMARK  127  A    between atoms: _282  and  _283
REMARK  128  A    between atoms: _285  and  _287
REMARK  129  A    between atoms: _287  and  _288
REMARK  130  A    between atoms: _287  and  _290
REMARK  131  A    between atoms: _293  and  _295
REMARK  132  A    between atoms: _295  and  _296
REMARK  133  A    between atoms: _295  and  _298
REMARK  134  A    between atoms: _298  and  _299
REMARK  135  A    between atoms: _299  and  _300
REMARK  136  A    between atoms: _302  and  _304
REMARK  137  A    between atoms: _304  and  _305
REMARK  138  A    between atoms: _304  and  _307
REMARK  139  A    between atoms: _307  and  _308
REMARK  140  A    between atoms: _308  and  _309
REMARK  141  A    between atoms: _312  and  _314
REMARK  142  A    between atoms: _314  and  _315
REMARK  143  A    between atoms: _314  and  _317
REMARK  144  A    between atoms: _317  and  _318
REMARK  145  A    between atoms: _323  and  _324
REMARK  146  A    between atoms: _326  and  _328
REMARK  147  A    between atoms: _328  and  _329
REMARK  148  A    between atoms: _328  and  _331
REMARK  149  A    between atoms: _335  and  _336
REMARK  150  A    between atoms: _341  and  _343
REMARK  151  A    between atoms: _343  and  _344
REMARK  152  A    between atoms: _346  and  _348
REMARK  153  A    between atoms: _348  and  _349
REMARK  154  A    between atoms: _351  and  _353
REMARK  155  A    between atoms: _353  and  _354
REMARK  156  A    between atoms: _353  and  _356
REMARK  157  A    between atoms: _356  and  _357
REMARK  158  A    between atoms: _357  and  _358
REMARK  159  A    between atoms: _361  and  _363
REMARK  160  A    between atoms: _363  and  _364
REMARK  161  A    between atoms: _363  and  _366
REMARK  162  A    between atoms: _366  and  _367
REMARK  163  A    between atoms: _367  and  _368
REMARK  164  A    between atoms: _370  and  _372
REMARK  165  A    between atoms: _372  and  _373
REMARK  166  A    between atoms: _372  and  _375
REMARK  167  A    between atoms: _375  and  _376
REMARK  168  A    between atoms: _382  and  _384
REMARK  169  A    between atoms: _384  and  _385
REMARK  170  A    between atoms: _384  and  _387
REMARK  171  A    between atoms: _387  and  _388
REMARK  172  A    between atoms: _390  and  _392
REMARK  173  A    between atoms: _392  and  _393
REMARK  174  A    between atoms: _392  and  _395
REMARK  175  A    between atoms: _395  and  _396
REMARK  176  A    between atoms: _401  and  _402
REMARK  177  A    between atoms: _404  and  _406
REMARK  178  A    between atoms: _406  and  _407
REMARK  179  A    between atoms: _406  and  _409
REMARK  180  A    between atoms: _409  and  _410
REMARK  181  A    between atoms: _410  and  _411
REMARK  182  A    between atoms: _411  and  _412
REMARK  183  A    between atoms: _421  and  _423
REMARK  184  A    between atoms: _423  and  _424
REMARK  185  A    between atoms: _423  and  _426
REMARK  186  A    between atoms: _426  and  _427
REMARK  187  A    between atoms: _430  and  _432
REMARK  188  A    between atoms: _432  and  _433
REMARK  189  A    between atoms: _432  and  _435
REMARK  190  A    between atoms: _435  and  _436
REMARK  191  A    between atoms: _439  and  _441
REMARK  192  A    between atoms: _441  and  _442
REMARK  193  A    between atoms: _441  and  _444
REMARK  194  A    between atoms: _444  and  _445
REMARK  195  A    between atoms: _445  and  _446
REMARK  196  A    between atoms: _446  and  _447
REMARK  197  A    between atoms: _447  and  _448
REMARK  198  A    between atoms: _453  and  _454
REMARK  199  A    between atoms: _459  and  _461
REMARK  200  A    between atoms: _461  and  _462
REMARK  201  A    between atoms: _461  and  _464
REMARK  202  A    between atoms: _464  and  _465
REMARK  203  A    between atoms: _465  and  _466
REMARK  204  A    between atoms: _469  and  _471
REMARK  205  A    between atoms: _471  and  _472
REMARK  206  A    between atoms: _471  and  _474
REMARK  207  A    between atoms: _474  and  _475
REMARK  208  A    between atoms: _480  and  _482
REMARK  209  A    between atoms: _482  and  _483
REMARK  210  A    between atoms: _482  and  _485
REMARK  211  A    between atoms: _485  and  _486
REMARK  212  A    between atoms: _489  and  _491
REMARK  213  A    between atoms: _491  and  _492
REMARK  214  A    between atoms: _491  and  _494
REMARK  215  A    between atoms: _494  and  _495
REMARK  216  A    between atoms: _498  and  _500
REMARK  217  A    between atoms: _500  and  _501
REMARK  218  A    between atoms: _500  and  _503
REMARK  219  A    between atoms: _503  and  _504
REMARK  220  A    between atoms: _507  and  _509
REMARK  221  A    between atoms: _509  and  _510
REMARK  222  A    between atoms: _509  and  _512
REMARK  223  A    between atoms: _512  and  _513
REMARK  224  A    between atoms: _513  and  _514
REMARK  225  A    between atoms: _519  and  _521
REMARK  226  A    between atoms: _521  and  _522
REMARK  227  A    between atoms: _521  and  _524
REMARK  228  A    between atoms: _527  and  _529
REMARK  229  A    between atoms: _529  and  _530
REMARK  230  A    between atoms: _529  and  _532
REMARK  231  A    between atoms: _532  and  _533
REMARK  232  A    between atoms: _536  and  _538
REMARK  233  A    between atoms: _538  and  _539
REMARK  234  A    between atoms: _538  and  _541
REMARK  235  A    between atoms: _541  and  _542
REMARK  236  A    between atoms: _545  and  _547
REMARK  237  A    between atoms: _547  and  _548
REMARK  238  A    between atoms: _547  and  _550
REMARK  239  A    between atoms: _550  and  _551
REMARK  240  A    between atoms: _557  and  _559
REMARK  241  A    between atoms: _559  and  _560
REMARK  242  A    between atoms: _562  and  _564
REMARK  243  A    between atoms: _564  and  _565
REMARK  244  A    between atoms: _564  and  _567
REMARK  245  A    between atoms: _567  and  _568
REMARK  246  A    between atoms: _574  and  _576
REMARK  247  A    between atoms: _576  and  _577
REMARK  248  A    between atoms: _576  and  _579
REMARK  249  A    between atoms: _581  and  _583
REMARK  250  A    between atoms: _583  and  _584
REMARK  251  A    between atoms: _586  and  _588
REMARK  252  A    between atoms: _588  and  _589
REMARK  253  A    between atoms: _588  and  _591
REMARK  254  A    between atoms: _591  and  _592
REMARK  255  A    between atoms: _596  and  _597
REMARK  256  A    between atoms: _602  and  _604
REMARK  257  A    between atoms: _604  and  _605
REMARK  258  A    between atoms: _604  and  _607
REMARK  259  A    between atoms: _607  and  _608
REMARK  260  A    between atoms: _613  and  _614
REMARK  261  A    between atoms: _616  and  _618
REMARK  262  A    between atoms: _618  and  _619
REMARK  263  A    between atoms: _618  and  _621
REMARK  264  A    between atoms: _621  and  _622
REMARK  265  A    between atoms: _625  and  _627
REMARK  266  A    between atoms: _627  and  _628
REMARK  267  A    between atoms: _627  and  _630
REMARK  268  A    between atoms: _630  and  _631
REMARK  269  A    between atoms: _636  and  _638
REMARK  270  A    between atoms: _638  and  _639
REMARK  271  A    between atoms: _638  and  _641
REMARK  272  A    between atoms: _641  and  _642
REMARK  273  A    between atoms: _648  and  _650
REMARK  274  A    between atoms: _650  and  _651
REMARK  275  A    between atoms: _650  and  _653
REMARK  276  A    between atoms: _653  and  _654
REMARK  277  A    between atoms: _657  and  _659
REMARK  278  A    between atoms: _659  and  _660
REMARK  279  A    between atoms: _659  and  _662
REMARK  280  A    between atoms: _662  and  _663
REMARK  281  A    between atoms: _668  and  _669
REMARK  282  A    between atoms: _671  and  _673
REMARK  283  A    between atoms: _673  and  _674
REMARK  284  A    between atoms: _673  and  _676
REMARK  285  A    between atoms: _676  and  _677
REMARK  286  A    between atoms: _677  and  _678
REMARK                            x       y       z     vdW  Elec       q    Type
REMARK                         _______ _______ _______ _____ _____    ______ ____
ROOT
ATOM      1  O   HOH     1      38.369  24.930  14.977  0.00  0.00    +0.000 OA
ENDROOT
TORSDOF 0
REMARK  Name = ../refined-set-2016/3bwj/3bwj_pocket.pdb
REMARK  286 active torsions:
REMARK  status: ('A' for Active; 'I' for Inactive)
REMARK    1  A    between atoms: _1  and  _3
REMARK    2  A    between atoms: _3  and  _4
REMARK    3  A    between atoms: _3  and  _6
REMARK    4  A    between atoms: _6  and  _7
REMARK    5  A    between atoms: _10  and  _12
REMARK    6  A    between atoms: _12  and  _13
REMARK    7  A    between atoms: _12  and  _15
REMARK    8  A    between atoms: _15  and  _16
REMARK    9  A    between atoms: _19  and  _21
REMARK   10  A    between atoms: _21  and  _22
REMARK   11  A    between atoms: _24  and  _26
REMARK   12  A    between atoms: _26  and  _27
REMARK   13  A    between atoms: _26  and  _29
REMARK   14  A    between atoms: _29  and  _30
REMARK   15  A    between atoms: _33  and  _35
REMARK   16  A    between atoms: _35  and  _36
REMARK   17  A    between atoms: _38  and  _40
REMARK   18  A    between atoms: _40  and  _41
REMARK   19  A    between atoms: _40  and  _43
REMARK   20  A    between atoms: _43  and  _44
REMARK   21  A    between atoms: _46  and  _48
REMARK   22  A    between atoms: _48  and  _49
REMARK   23  A    between atoms: _48  and  _51
REMARK   24  A    between atoms: _51  and  _52
REMARK   25  A    between atoms: _58  and  _60
REMARK   26  A    between atoms: _60  and  _61
REMARK   27  A    between atoms: _63  and  _65
REMARK   28  A    between atoms: _65  and  _66
REMARK   29  A    between atoms: _65  and  _68
REMARK   30  A    between atoms: _68  and  _69
REMARK   31  A    between atoms: _69  and  _70
REMARK   32  A    between atoms: _70  and  _71
REMARK   33  A    between atoms: _80  and  _82
REMARK   34  A    between atoms: _82  and  _83
REMARK   35  A    between atoms: _82  and  _85
REMARK   36  A    between atoms: _88  and  _90
REMARK   37  A    between atoms: _90  and  _91
REMARK   38  A    between atoms: _90  and  _93
REMARK   39  A    between atoms: _93  and  _94
REMARK   40  A    between atoms: _94  and  _95
REMARK   41  A    between atoms: _97  and  _99
REMARK   42  A    between atoms: _99  and  _100
REMARK   43  A    between atoms: _99  and  _102
REMARK   44  A    between atoms: _102  and  _103
REMARK   45  A    between atoms: _106  and  _108
REMARK   46  A    between atoms: _108  and  _109
REMARK   47  A    between atoms: _108  and  _111
REMARK   48  A    between atoms: _111  and  _112
REMARK   49  A    between atoms: _117  and  _118
REMARK   50  A    between atoms: _120  and  _122
REMARK   51  A    between atoms: _122  and  _123
REMARK   52  A    between atoms: _126  and  _128
REMARK   53  A    between atoms: _128  and  _129
REMARK   54  A    between atoms: _128  and  _131
REMARK   55  A    between atoms: _131  and  _132
REMARK   56  A    between atoms: _132  and  _133
REMARK   57  A    between atoms: _135  and  _137
REMARK   58  A    between atoms: _137  and  _138
REMARK   59  A    between atoms: _137  and  _140
REMARK   60  A    between atoms: _140  and  _141
REMARK   61  A    between atoms: _141  and  _142
REMARK   62  A    between atoms: _142  and  _143
REMARK   63  A    between atoms: _143  and  _144
REMARK   64  A    between atoms: _148  and  _150
REMARK   65  A    between atoms: _150  and  _151
REMARK   66  A    between atoms: _150  and  _153
REMARK   67  A    between atoms: _153  and  _154
REMARK   68  A    between atoms: _157  and  _159
REMARK   69  A    between atoms: _159  and  _160
REMARK   70  A    between atoms: _159  and  _162
REMARK   71  A    between atoms: _162  and  _163
REMARK   72  A    between atoms: _166  and  _168
REMARK   73  A    between atoms: _168  and  _169
REMARK   74  A    between atoms: _168  and  _171
REMARK   75  A    between atoms: _171  and  _172
REMARK   76  A    between atoms: _175  and  _177
REMARK   77  A    between atoms: _177  and  _178
REMARK   78  A    between atoms: _177  and  _180
REMARK   79  A    between atoms: _180  and  _181
REMARK   80  A    between atoms: _181  and  _182
REMARK   81  A    between atoms: _182  and  _183
REMARK   82  A    between atoms: _183  and  _184
REMARK   83  A    between atoms: _188  and  _190
REMARK   84  A    between atoms: _190  and  _191
REMARK   85  A    between atoms: _190  and  _193
REMARK   86  A    between atoms: _196  and  _198
REMARK   87  A    between atoms: _198  and  _199
REMARK   88  A    between atoms: _198  and  _201
REMARK   89  A    between atoms: _201  and  _202
REMARK   90  A    between atoms: _205  and  _207
REMARK   91  A    between atoms: _207  and  _208
REMARK   92  A    between atoms: _207  and  _210
REMARK   93  A    between atoms: _210  and  _211
REMARK   94  A    between atoms: _211  and  _212
REMARK   95  A    between atoms: _217  and  _219
REMARK   96  A    between atoms: _219  and  _220
REMARK   97  A    between atoms: _219  and  _222
REMARK   98  A    between atoms: _222  and  _223
REMARK   99  A    between atoms: _226  and  _228
REMARK  100  A    between atoms: _228  and  _229
REMARK  101  A    between atoms: _228  and  _231
REMARK  102  A    between atoms: _231  and  _232
REMARK  103  A    between atoms: _232  and  _233
REMARK  104  A    between atoms: _236  and  _238
REMARK  105  A    between atoms: _238  and  _239
REMARK  106  A    between atoms: _238  and  _241
REMARK  107  A    between atoms: _244  and  _246
REMARK  108  A    between atoms: _246  and  _247
REMARK  109  A    between atoms: _246  and  _249
REMARK  110  A    between atoms: _249  and  _250
REMARK  111  A    between atoms: _250  and  _251
REMARK  112  A    between atoms: _251  and  _252
REMARK  113  A    between atoms: _252  and  _253
REMARK  114  A    between atoms: _257  and  _259
REMARK  115  A    between atoms: _259  and  _260
REMARK  116  A    between atoms: _259  and  _262
REMARK  117  A    between atoms: _262  and  _263
REMARK  118  A    between atoms: _266  and  _268
REMARK  119  A    between atoms: _268  and  _269
REMARK  120  A    between atoms: _268  and  _271
REMARK  121  A    between atoms: _271  and  _272
REMARK  122  A    between atoms: _272  and  _273
REMARK  123  A    between atoms: _276  and  _278
REMARK  124  A    between atoms: _278  and  _279
REMARK  125  A    between atoms: _278  and  _281
REMARK  126  A    between atoms: _281  and  _282
REMARK  127  A    between atoms: _282  and  _283
REMARK  128  A    between atoms: _285  and  _287
REMARK  129  A    between atoms: _287  and  _288
REMARK  130  A    between atoms: _287  and  _290
REMARK  131  A    between atoms: _293  and  _295
REMARK  132  A    between atoms: _295  and  _296
REMARK  133  A    between atoms: _295  and  _298
REMARK  134  A    between atoms: _298  and  _299
REMARK  135  A    between atoms: _299  and  _300
REMARK  136  A    between atoms: _302  and  _304
REMARK  137  A    between atoms: _304  and  _305
REMARK  138  A    between atoms: _304  and  _307
REMARK  139  A    between atoms: _307  and  _308
REMARK  140  A    between atoms: _308  and  _309
REMARK  141  A    between atoms: _312  and  _314
REMARK  142  A    between atoms: _314  and  _315
REMARK  143  A    between atoms: _314  and  _317
REMARK  144  A    between atoms: _317  and  _318
REMARK  145  A    between atoms: _323  and  _324
REMARK  146  A    between atoms: _326  and  _328
REMARK  147  A    between atoms: _328  and  _329
REMARK  148  A    between atoms: _328  and  _331
REMARK  149  A    between atoms: _335  and  _336
REMARK  150  A    between atoms: _341  and  _343
REMARK  151  A    between atoms: _343  and  _344
REMARK  152  A    between atoms: _346  and  _348
REMARK  153  A    between atoms: _348  and  _349
REMARK  154  A    between atoms: _351  and  _353
REMARK  155  A    between atoms: _353  and  _354
REMARK  156  A    between atoms: _353  and  _356
REMARK  157  A    between atoms: _356  and  _357
REMARK  158  A    between atoms: _357  and  _358
REMARK  159  A    between atoms: _361  and  _363
REMARK  160  A    between atoms: _363  and  _364
REMARK  161  A    between atoms: _363  and  _366
REMARK  162  A    between atoms: _366  and  _367
REMARK  163  A    between atoms: _367  and  _368
REMARK  164  A    between atoms: _370  and  _372
REMARK  165  A    between atoms: _372  and  _373
REMARK  166  A    between atoms: _372  and  _375
REMARK  167  A    between atoms: _375  and  _376
REMARK  168  A    between atoms: _382  and  _384
REMARK  169  A    between atoms: _384  and  _385
REMARK  170  A    between atoms: _384  and  _387
REMARK  171  A    between atoms: _387  and  _388
REMARK  172  A    between atoms: _390  and  _392
REMARK  173  A    between atoms: _392  and  _393
REMARK  174  A    between atoms: _392  and  _395
REMARK  175  A    between atoms: _395  and  _396
REMARK  176  A    between atoms: _401  and  _402
REMARK  177  A    between atoms: _404  and  _406
REMARK  178  A    between atoms: _406  and  _407
REMARK  179  A    between atoms: _406  and  _409
REMARK  180  A    between atoms: _409  and  _410
REMARK  181  A    between atoms: _410  and  _411
REMARK  182  A    between atoms: _411  and  _412
REMARK  183  A    between atoms: _421  and  _423
REMARK  184  A    between atoms: _423  and  _424
REMARK  185  A    between atoms: _423  and  _426
REMARK  186  A    between atoms: _426  and  _427
REMARK  187  A    between atoms: _430  and  _432
REMARK  188  A    between atoms: _432  and  _433
REMARK  189  A    between atoms: _432  and  _435
REMARK  190  A    between atoms: _435  and  _436
REMARK  191  A    between atoms: _439  and  _441
REMARK  192  A    between atoms: _441  and  _442
REMARK  193  A    between atoms: _441  and  _444
REMARK  194  A    between atoms: _444  and  _445
REMARK  195  A    between atoms: _445  and  _446
REMARK  196  A    between atoms: _446  and  _447
REMARK  197  A    between atoms: _447  and  _448
REMARK  198  A    between atoms: _453  and  _454
REMARK  199  A    between atoms: _459  and  _461
REMARK  200  A    between atoms: _461  and  _462
REMARK  201  A    between atoms: _461  and  _464
REMARK  202  A    between atoms: _464  and  _465
REMARK  203  A    between atoms: _465  and  _466
REMARK  204  A    between atoms: _469  and  _471
REMARK  205  A    between atoms: _471  and  _472
REMARK  206  A    between atoms: _471  and  _474
REMARK  207  A    between atoms: _474  and  _475
REMARK  208  A    between atoms: _480  and  _482
REMARK  209  A    between atoms: _482  and  _483
REMARK  210  A    between atoms: _482  and  _485
REMARK  211  A    between atoms: _485  and  _486
REMARK  212  A    between atoms: _489  and  _491
REMARK  213  A    between atoms: _491  and  _492
REMARK  214  A    between atoms: _491  and  _494
REMARK  215  A    between atoms: _494  and  _495
REMARK  216  A    between atoms: _498  and  _500
REMARK  217  A    between atoms: _500  and  _501
REMARK  218  A    between atoms: _500  and  _503
REMARK  219  A    between atoms: _503  and  _504
REMARK  220  A    between atoms: _507  and  _509
REMARK  221  A    between atoms: _509  and  _510
REMARK  222  A    between atoms: _509  and  _512
REMARK  223  A    between atoms: _512  and  _513
REMARK  224  A    between atoms: _513  and  _514
REMARK  225  A    between atoms: _519  and  _521
REMARK  226  A    between atoms: _521  and  _522
REMARK  227  A    between atoms: _521  and  _524
REMARK  228  A    between atoms: _527  and  _529
REMARK  229  A    between atoms: _529  and  _530
REMARK  230  A    between atoms: _529  and  _532
REMARK  231  A    between atoms: _532  and  _533
REMARK  232  A    between atoms: _536  and  _538
REMARK  233  A    between atoms: _538  and  _539
REMARK  234  A    between atoms: _538  and  _541
REMARK  235  A    between atoms: _541  and  _542
REMARK  236  A    between atoms: _545  and  _547
REMARK  237  A    between atoms: _547  and  _548
REMARK  238  A    between atoms: _547  and  _550
REMARK  239  A    between atoms: _550  and  _551
REMARK  240  A    between atoms: _557  and  _559
REMARK  241  A    between atoms: _559  and  _560
REMARK  242  A    between atoms: _562  and  _564
REMARK  243  A    between atoms: _564  and  _565
REMARK  244  A    between atoms: _564  and  _567
REMARK  245  A    between atoms: _567  and  _568
REMARK  246  A    between atoms: _574  and  _576
REMARK  247  A    between atoms: _576  and  _577
REMARK  248  A    between atoms: _576  and  _579
REMARK  249  A    between atoms: _581  and  _583
REMARK  250  A    between atoms: _583  and  _584
REMARK  251  A    between atoms: _586  and  _588
REMARK  252  A    between atoms: _588  and  _589
REMARK  253  A    between atoms: _588  and  _591
REMARK  254  A    between atoms: _591  and  _592
REMARK  255  A    between atoms: _596  and  _597
REMARK  256  A    between atoms: _602  and  _604
REMARK  257  A    between atoms: _604  and  _605
REMARK  258  A    between atoms: _604  and  _607
REMARK  259  A    between atoms: _607  and  _608
REMARK  260  A    between atoms: _613  and  _614
REMARK  261  A    between atoms: _616  and  _618
REMARK  262  A    between atoms: _618  and  _619
REMARK  263  A    between atoms: _618  and  _621
REMARK  264  A    between atoms: _621  and  _622
REMARK  265  A    between atoms: _625  and  _627
REMARK  266  A    between atoms: _627  and  _628
REMARK  267  A    between atoms: _627  and  _630
REMARK  268  A    between atoms: _630  and  _631
REMARK  269  A    between atoms: _636  and  _638
REMARK  270  A    between atoms: _638  and  _639
REMARK  271  A    between atoms: _638  and  _641
REMARK  272  A    between atoms: _641  and  _642
REMARK  273  A    between atoms: _648  and  _650
REMARK  274  A    between atoms: _650  and  _651
REMARK  275  A    between atoms: _650  and  _653
REMARK  276  A    between atoms: _653  and  _654
REMARK  277  A    between atoms: _657  and  _659
REMARK  278  A    between atoms: _659  and  _660
REMARK  279  A    between atoms: _659  and  _662
REMARK  280  A    between atoms: _662  and  _663
REMARK  281  A    between atoms: _668  and  _669
REMARK  282  A    between atoms: _671  and  _673
REMARK  283  A    between atoms: _673  and  _674
REMARK  284  A    between atoms: _673  and  _676
REMARK  285  A    between atoms: _676  and  _677
REMARK  286  A    between atoms: _677  and  _678
REMARK                            x       y       z     vdW  Elec       q    Type
REMARK                         _______ _______ _______ _____ _____    ______ ____
ROOT
ATOM      1  O   HOH     1      28.113  32.890  12.802  0.00  0.00    +0.000 OA
ENDROOT
TORSDOF 0
REMARK  Name = ../refined-set-2016/3bwj/3bwj_pocket.pdb
REMARK  286 active torsions:
REMARK  status: ('A' for Active; 'I' for Inactive)
REMARK    1  A    between atoms: _1  and  _3
REMARK    2  A    between atoms: _3  and  _4
REMARK    3  A    between atoms: _3  and  _6
REMARK    4  A    between atoms: _6  and  _7
REMARK    5  A    between atoms: _10  and  _12
REMARK    6  A    between atoms: _12  and  _13
REMARK    7  A    between atoms: _12  and  _15
REMARK    8  A    between atoms: _15  and  _16
REMARK    9  A    between atoms: _19  and  _21
REMARK   10  A    between atoms: _21  and  _22
REMARK   11  A    between atoms: _24  and  _26
REMARK   12  A    between atoms: _26  and  _27
REMARK   13  A    between atoms: _26  and  _29
REMARK   14  A    between atoms: _29  and  _30
REMARK   15  A    between atoms: _33  and  _35
REMARK   16  A    between atoms: _35  and  _36
REMARK   17  A    between atoms: _38  and  _40
REMARK   18  A    between atoms: _40  and  _41
REMARK   19  A    between atoms: _40  and  _43
REMARK   20  A    between atoms: _43  and  _44
REMARK   21  A    between atoms: _46  and  _48
REMARK   22  A    between atoms: _48  and  _49
REMARK   23  A    between atoms: _48  and  _51
REMARK   24  A    between atoms: _51  and  _52
REMARK   25  A    between atoms: _58  and  _60
REMARK   26  A    between atoms: _60  and  _61
REMARK   27  A    between atoms: _63  and  _65
REMARK   28  A    between atoms: _65  and  _66
REMARK   29  A    between atoms: _65  and  _68
REMARK   30  A    between atoms: _68  and  _69
REMARK   31  A    between atoms: _69  and  _70
REMARK   32  A    between atoms: _70  and  _71
REMARK   33  A    between atoms: _80  and  _82
REMARK   34  A    between atoms: _82  and  _83
REMARK   35  A    between atoms: _82  and  _85
REMARK   36  A    between atoms: _88  and  _90
REMARK   37  A    between atoms: _90  and  _91
REMARK   38  A    between atoms: _90  and  _93
REMARK   39  A    between atoms: _93  and  _94
REMARK   40  A    between atoms: _94  and  _95
REMARK   41  A    between atoms: _97  and  _99
REMARK   42  A    between atoms: _99  and  _100
REMARK   43  A    between atoms: _99  and  _102
REMARK   44  A    between atoms: _102  and  _103
REMARK   45  A    between atoms: _106  and  _108
REMARK   46  A    between atoms: _108  and  _109
REMARK   47  A    between atoms: _108  and  _111
REMARK   48  A    between atoms: _111  and  _112
REMARK   49  A    between atoms: _117  and  _118
REMARK   50  A    between atoms: _120  and  _122
REMARK   51  A    between atoms: _122  and  _123
REMARK   52  A    between atoms: _126  and  _128
REMARK   53  A    between atoms: _128  and  _129
REMARK   54  A    between atoms: _128  and  _131
REMARK   55  A    between atoms: _131  and  _132
REMARK   56  A    between atoms: _132  and  _133
REMARK   57  A    between atoms: _135  and  _137
REMARK   58  A    between atoms: _137  and  _138
REMARK   59  A    between atoms: _137  and  _140
REMARK   60  A    between atoms: _140  and  _141
REMARK   61  A    between atoms: _141  and  _142
REMARK   62  A    between atoms: _142  and  _143
REMARK   63  A    between atoms: _143  and  _144
REMARK   64  A    between atoms: _148  and  _150
REMARK   65  A    between atoms: _150  and  _151
REMARK   66  A    between atoms: _150  and  _153
REMARK   67  A    between atoms: _153  and  _154
REMARK   68  A    between atoms: _157  and  _159
REMARK   69  A    between atoms: _159  and  _160
REMARK   70  A    between atoms: _159  and  _162
REMARK   71  A    between atoms: _162  and  _163
REMARK   72  A    between atoms: _166  and  _168
REMARK   73  A    between atoms: _168  and  _169
REMARK   74  A    between atoms: _168  and  _171
REMARK   75  A    between atoms: _171  and  _172
REMARK   76  A    between atoms: _175  and  _177
REMARK   77  A    between atoms: _177  and  _178
REMARK   78  A    between atoms: _177  and  _180
REMARK   79  A    between atoms: _180  and  _181
REMARK   80  A    between atoms: _181  and  _182
REMARK   81  A    between atoms: _182  and  _183
REMARK   82  A    between atoms: _183  and  _184
REMARK   83  A    between atoms: _188  and  _190
REMARK   84  A    between atoms: _190  and  _191
REMARK   85  A    between atoms: _190  and  _193
REMARK   86  A    between atoms: _196  and  _198
REMARK   87  A    between atoms: _198  and  _199
REMARK   88  A    between atoms: _198  and  _201
REMARK   89  A    between atoms: _201  and  _202
REMARK   90  A    between atoms: _205  and  _207
REMARK   91  A    between atoms: _207  and  _208
REMARK   92  A    between atoms: _207  and  _210
REMARK   93  A    between atoms: _210  and  _211
REMARK   94  A    between atoms: _211  and  _212
REMARK   95  A    between atoms: _217  and  _219
REMARK   96  A    between atoms: _219  and  _220
REMARK   97  A    between atoms: _219  and  _222
REMARK   98  A    between atoms: _222  and  _223
REMARK   99  A    between atoms: _226  and  _228
REMARK  100  A    between atoms: _228  and  _229
REMARK  101  A    between atoms: _228  and  _231
REMARK  102  A    between atoms: _231  and  _232
REMARK  103  A    between atoms: _232  and  _233
REMARK  104  A    between atoms: _236  and  _238
REMARK  105  A    between atoms: _238  and  _239
REMARK  106  A    between atoms: _238  and  _241
REMARK  107  A    between atoms: _244  and  _246
REMARK  108  A    between atoms: _246  and  _247
REMARK  109  A    between atoms: _246  and  _249
REMARK  110  A    between atoms: _249  and  _250
REMARK  111  A    between atoms: _250  and  _251
REMARK  112  A    between atoms: _251  and  _252
REMARK  113  A    between atoms: _252  and  _253
REMARK  114  A    between atoms: _257  and  _259
REMARK  115  A    between atoms: _259  and  _260
REMARK  116  A    between atoms: _259  and  _262
REMARK  117  A    between atoms: _262  and  _263
REMARK  118  A    between atoms: _266  and  _268
REMARK  119  A    between atoms: _268  and  _269
REMARK  120  A    between atoms: _268  and  _271
REMARK  121  A    between atoms: _271  and  _272
REMARK  122  A    between atoms: _272  and  _273
REMARK  123  A    between atoms: _276  and  _278
REMARK  124  A    between atoms: _278  and  _279
REMARK  125  A    between atoms: _278  and  _281
REMARK  126  A    between atoms: _281  and  _282
REMARK  127  A    between atoms: _282  and  _283
REMARK  128  A    between atoms: _285  and  _287
REMARK  129  A    between atoms: _287  and  _288
REMARK  130  A    between atoms: _287  and  _290
REMARK  131  A    between atoms: _293  and  _295
REMARK  132  A    between atoms: _295  and  _296
REMARK  133  A    between atoms: _295  and  _298
REMARK  134  A    between atoms: _298  and  _299
REMARK  135  A    between atoms: _299  and  _300
REMARK  136  A    between atoms: _302  and  _304
REMARK  137  A    between atoms: _304  and  _305
REMARK  138  A    between atoms: _304  and  _307
REMARK  139  A    between atoms: _307  and  _308
REMARK  140  A    between atoms: _308  and  _309
REMARK  141  A    between atoms: _312  and  _314
REMARK  142  A    between atoms: _314  and  _315
REMARK  143  A    between atoms: _314  and  _317
REMARK  144  A    between atoms: _317  and  _318
REMARK  145  A    between atoms: _323  and  _324
REMARK  146  A    between atoms: _326  and  _328
REMARK  147  A    between atoms: _328  and  _329
REMARK  148  A    between atoms: _328  and  _331
REMARK  149  A    between atoms: _335  and  _336
REMARK  150  A    between atoms: _341  and  _343
REMARK  151  A    between atoms: _343  and  _344
REMARK  152  A    between atoms: _346  and  _348
REMARK  153  A    between atoms: _348  and  _349
REMARK  154  A    between atoms: _351  and  _353
REMARK  155  A    between atoms: _353  and  _354
REMARK  156  A    between atoms: _353  and  _356
REMARK  157  A    between atoms: _356  and  _357
REMARK  158  A    between atoms: _357  and  _358
REMARK  159  A    between atoms: _361  and  _363
REMARK  160  A    between atoms: _363  and  _364
REMARK  161  A    between atoms: _363  and  _366
REMARK  162  A    between atoms: _366  and  _367
REMARK  163  A    between atoms: _367  and  _368
REMARK  164  A    between atoms: _370  and  _372
REMARK  165  A    between atoms: _372  and  _373
REMARK  166  A    between atoms: _372  and  _375
REMARK  167  A    between atoms: _375  and  _376
REMARK  168  A    between atoms: _382  and  _384
REMARK  169  A    between atoms: _384  and  _385
REMARK  170  A    between atoms: _384  and  _387
REMARK  171  A    between atoms: _387  and  _388
REMARK  172  A    between atoms: _390  and  _392
REMARK  173  A    between atoms: _392  and  _393
REMARK  174  A    between atoms: _392  and  _395
REMARK  175  A    between atoms: _395  and  _396
REMARK  176  A    between atoms: _401  and  _402
REMARK  177  A    between atoms: _404  and  _406
REMARK  178  A    between atoms: _406  and  _407
REMARK  179  A    between atoms: _406  and  _409
REMARK  180  A    between atoms: _409  and  _410
REMARK  181  A    between atoms: _410  and  _411
REMARK  182  A    between atoms: _411  and  _412
REMARK  183  A    between atoms: _421  and  _423
REMARK  184  A    between atoms: _423  and  _424
REMARK  185  A    between atoms: _423  and  _426
REMARK  186  A    between atoms: _426  and  _427
REMARK  187  A    between atoms: _430  and  _432
REMARK  188  A    between atoms: _432  and  _433
REMARK  189  A    between atoms: _432  and  _435
REMARK  190  A    between atoms: _435  and  _436
REMARK  191  A    between atoms: _439  and  _441
REMARK  192  A    between atoms: _441  and  _442
REMARK  193  A    between atoms: _441  and  _444
REMARK  194  A    between atoms: _444  and  _445
REMARK  195  A    between atoms: _445  and  _446
REMARK  196  A    between atoms: _446  and  _447
REMARK  197  A    between atoms: _447  and  _448
REMARK  198  A    between atoms: _453  and  _454
REMARK  199  A    between atoms: _459  and  _461
REMARK  200  A    between atoms: _461  and  _462
REMARK  201  A    between atoms: _461  and  _464
REMARK  202  A    between atoms: _464  and  _465
REMARK  203  A    between atoms: _465  and  _466
REMARK  204  A    between atoms: _469  and  _471
REMARK  205  A    between atoms: _471  and  _472
REMARK  206  A    between atoms: _471  and  _474
REMARK  207  A    between atoms: _474  and  _475
REMARK  208  A    between atoms: _480  and  _482
REMARK  209  A    between atoms: _482  and  _483
REMARK  210  A    between atoms: _482  and  _485
REMARK  211  A    between atoms: _485  and  _486
REMARK  212  A    between atoms: _489  and  _491
REMARK  213  A    between atoms: _491  and  _492
REMARK  214  A    between atoms: _491  and  _494
REMARK  215  A    between atoms: _494  and  _495
REMARK  216  A    between atoms: _498  and  _500
REMARK  217  A    between atoms: _500  and  _501
REMARK  218  A    between atoms: _500  and  _503
REMARK  219  A    between atoms: _503  and  _504
REMARK  220  A    between atoms: _507  and  _509
REMARK  221  A    between atoms: _509  and  _510
REMARK  222  A    between atoms: _509  and  _512
REMARK  223  A    between atoms: _512  and  _513
REMARK  224  A    between atoms: _513  and  _514
REMARK  225  A    between atoms: _519  and  _521
REMARK  226  A    between atoms: _521  and  _522
REMARK  227  A    between atoms: _521  and  _524
REMARK  228  A    between atoms: _527  and  _529
REMARK  229  A    between atoms: _529  and  _530
REMARK  230  A    between atoms: _529  and  _532
REMARK  231  A    between atoms: _532  and  _533
REMARK  232  A    between atoms: _536  and  _538
REMARK  233  A    between atoms: _538  and  _539
REMARK  234  A    between atoms: _538  and  _541
REMARK  235  A    between atoms: _541  and  _542
REMARK  236  A    between atoms: _545  and  _547
REMARK  237  A    between atoms: _547  and  _548
REMARK  238  A    between atoms: _547  and  _550
REMARK  239  A    between atoms: _550  and  _551
REMARK  240  A    between atoms: _557  and  _559
REMARK  241  A    between atoms: _559  and  _560
REMARK  242  A    between atoms: _562  and  _564
REMARK  243  A    between atoms: _564  and  _565
REMARK  244  A    between atoms: _564  and  _567
REMARK  245  A    between atoms: _567  and  _568
REMARK  246  A    between atoms: _574  and  _576
REMARK  247  A    between atoms: _576  and  _577
REMARK  248  A    between atoms: _576  and  _579
REMARK  249  A    between atoms: _581  and  _583
REMARK  250  A    between atoms: _583  and  _584
REMARK  251  A    between atoms: _586  and  _588
REMARK  252  A    between atoms: _588  and  _589
REMARK  253  A    between atoms: _588  and  _591
REMARK  254  A    between atoms: _591  and  _592
REMARK  255  A    between atoms: _596  and  _597
REMARK  256  A    between atoms: _602  and  _604
REMARK  257  A    between atoms: _604  and  _605
REMARK  258  A    between atoms: _604  and  _607
REMARK  259  A    between atoms: _607  and  _608
REMARK  260  A    between atoms: _613  and  _614
REMARK  261  A    between atoms: _616  and  _618
REMARK  262  A    between atoms: _618  and  _619
REMARK  263  A    between atoms: _618  and  _621
REMARK  264  A    between atoms: _621  and  _622
REMARK  265  A    between atoms: _625  and  _627
REMARK  266  A    between atoms: _627  and  _628
REMARK  267  A    between atoms: _627  and  _630
REMARK  268  A    between atoms: _630  and  _631
REMARK  269  A    between atoms: _636  and  _638
REMARK  270  A    between atoms: _638  and  _639
REMARK  271  A    between atoms: _638  and  _641
REMARK  272  A    between atoms: _641  and  _642
REMARK  273  A    between atoms: _648  and  _650
REMARK  274  A    between atoms: _650  and  _651
REMARK  275  A    between atoms: _650  and  _653
REMARK  276  A    between atoms: _653  and  _654
REMARK  277  A    between atoms: _657  and  _659
REMARK  278  A    between atoms: _659  and  _660
REMARK  279  A    between atoms: _659  and  _662
REMARK  280  A    between atoms: _662  and  _663
REMARK  281  A    between atoms: _668  and  _669
REMARK  282  A    between atoms: _671  and  _673
REMARK  283  A    between atoms: _673  and  _674
REMARK  284  A    between atoms: _673  and  _676
REMARK  285  A    between atoms: _676  and  _677
REMARK  286  A    between atoms: _677  and  _678
REMARK                            x       y       z     vdW  Elec       q    Type
REMARK                         _______ _______ _______ _____ _____    ______ ____
ROOT
ATOM      1  O   HOH     1      18.671  22.555   8.361  0.00  0.00    +0.000 OA
ENDROOT
TORSDOF 0
REMARK  Name = ../refined-set-2016/3bwj/3bwj_pocket.pdb
REMARK  286 active torsions:
REMARK  status: ('A' for Active; 'I' for Inactive)
REMARK    1  A    between atoms: _1  and  _3
REMARK    2  A    between atoms: _3  and  _4
REMARK    3  A    between atoms: _3  and  _6
REMARK    4  A    between atoms: _6  and  _7
REMARK    5  A    between atoms: _10  and  _12
REMARK    6  A    between atoms: _12  and  _13
REMARK    7  A    between atoms: _12  and  _15
REMARK    8  A    between atoms: _15  and  _16
REMARK    9  A    between atoms: _19  and  _21
REMARK   10  A    between atoms: _21  and  _22
REMARK   11  A    between atoms: _24  and  _26
REMARK   12  A    between atoms: _26  and  _27
REMARK   13  A    between atoms: _26  and  _29
REMARK   14  A    between atoms: _29  and  _30
REMARK   15  A    between atoms: _33  and  _35
REMARK   16  A    between atoms: _35  and  _36
REMARK   17  A    between atoms: _38  and  _40
REMARK   18  A    between atoms: _40  and  _41
REMARK   19  A    between atoms: _40  and  _43
REMARK   20  A    between atoms: _43  and  _44
REMARK   21  A    between atoms: _46  and  _48
REMARK   22  A    between atoms: _48  and  _49
REMARK   23  A    between atoms: _48  and  _51
REMARK   24  A    between atoms: _51  and  _52
REMARK   25  A    between atoms: _58  and  _60
REMARK   26  A    between atoms: _60  and  _61
REMARK   27  A    between atoms: _63  and  _65
REMARK   28  A    between atoms: _65  and  _66
REMARK   29  A    between atoms: _65  and  _68
REMARK   30  A    between atoms: _68  and  _69
REMARK   31  A    between atoms: _69  and  _70
REMARK   32  A    between atoms: _70  and  _71
REMARK   33  A    between atoms: _80  and  _82
REMARK   34  A    between atoms: _82  and  _83
REMARK   35  A    between atoms: _82  and  _85
REMARK   36  A    between atoms: _88  and  _90
REMARK   37  A    between atoms: _90  and  _91
REMARK   38  A    between atoms: _90  and  _93
REMARK   39  A    between atoms: _93  and  _94
REMARK   40  A    between atoms: _94  and  _95
REMARK   41  A    between atoms: _97  and  _99
REMARK   42  A    between atoms: _99  and  _100
REMARK   43  A    between atoms: _99  and  _102
REMARK   44  A    between atoms: _102  and  _103
REMARK   45  A    between atoms: _106  and  _108
REMARK   46  A    between atoms: _108  and  _109
REMARK   47  A    between atoms: _108  and  _111
REMARK   48  A    between atoms: _111  and  _112
REMARK   49  A    between atoms: _117  and  _118
REMARK   50  A    between atoms: _120  and  _122
REMARK   51  A    between atoms: _122  and  _123
REMARK   52  A    between atoms: _126  and  _128
REMARK   53  A    between atoms: _128  and  _129
REMARK   54  A    between atoms: _128  and  _131
REMARK   55  A    between atoms: _131  and  _132
REMARK   56  A    between atoms: _132  and  _133
REMARK   57  A    between atoms: _135  and  _137
REMARK   58  A    between atoms: _137  and  _138
REMARK   59  A    between atoms: _137  and  _140
REMARK   60  A    between atoms: _140  and  _141
REMARK   61  A    between atoms: _141  and  _142
REMARK   62  A    between atoms: _142  and  _143
REMARK   63  A    between atoms: _143  and  _144
REMARK   64  A    between atoms: _148  and  _150
REMARK   65  A    between atoms: _150  and  _151
REMARK   66  A    between atoms: _150  and  _153
REMARK   67  A    between atoms: _153  and  _154
REMARK   68  A    between atoms: _157  and  _159
REMARK   69  A    between atoms: _159  and  _160
REMARK   70  A    between atoms: _159  and  _162
REMARK   71  A    between atoms: _162  and  _163
REMARK   72  A    between atoms: _166  and  _168
REMARK   73  A    between atoms: _168  and  _169
REMARK   74  A    between atoms: _168  and  _171
REMARK   75  A    between atoms: _171  and  _172
REMARK   76  A    between atoms: _175  and  _177
REMARK   77  A    between atoms: _177  and  _178
REMARK   78  A    between atoms: _177  and  _180
REMARK   79  A    between atoms: _180  and  _181
REMARK   80  A    between atoms: _181  and  _182
REMARK   81  A    between atoms: _182  and  _183
REMARK   82  A    between atoms: _183  and  _184
REMARK   83  A    between atoms: _188  and  _190
REMARK   84  A    between atoms: _190  and  _191
REMARK   85  A    between atoms: _190  and  _193
REMARK   86  A    between atoms: _196  and  _198
REMARK   87  A    between atoms: _198  and  _199
REMARK   88  A    between atoms: _198  and  _201
REMARK   89  A    between atoms: _201  and  _202
REMARK   90  A    between atoms: _205  and  _207
REMARK   91  A    between atoms: _207  and  _208
REMARK   92  A    between atoms: _207  and  _210
REMARK   93  A    between atoms: _210  and  _211
REMARK   94  A    between atoms: _211  and  _212
REMARK   95  A    between atoms: _217  and  _219
REMARK   96  A    between atoms: _219  and  _220
REMARK   97  A    between atoms: _219  and  _222
REMARK   98  A    between atoms: _222  and  _223
REMARK   99  A    between atoms: _226  and  _228
REMARK  100  A    between atoms: _228  and  _229
REMARK  101  A    between atoms: _228  and  _231
REMARK  102  A    between atoms: _231  and  _232
REMARK  103  A    between atoms: _232  and  _233
REMARK  104  A    between atoms: _236  and  _238
REMARK  105  A    between atoms: _238  and  _239
REMARK  106  A    between atoms: _238  and  _241
REMARK  107  A    between atoms: _244  and  _246
REMARK  108  A    between atoms: _246  and  _247
REMARK  109  A    between atoms: _246  and  _249
REMARK  110  A    between atoms: _249  and  _250
REMARK  111  A    between atoms: _250  and  _251
REMARK  112  A    between atoms: _251  and  _252
REMARK  113  A    between atoms: _252  and  _253
REMARK  114  A    between atoms: _257  and  _259
REMARK  115  A    between atoms: _259  and  _260
REMARK  116  A    between atoms: _259  and  _262
REMARK  117  A    between atoms: _262  and  _263
REMARK  118  A    between atoms: _266  and  _268
REMARK  119  A    between atoms: _268  and  _269
REMARK  120  A    between atoms: _268  and  _271
REMARK  121  A    between atoms: _271  and  _272
REMARK  122  A    between atoms: _272  and  _273
REMARK  123  A    between atoms: _276  and  _278
REMARK  124  A    between atoms: _278  and  _279
REMARK  125  A    between atoms: _278  and  _281
REMARK  126  A    between atoms: _281  and  _282
REMARK  127  A    between atoms: _282  and  _283
REMARK  128  A    between atoms: _285  and  _287
REMARK  129  A    between atoms: _287  and  _288
REMARK  130  A    between atoms: _287  and  _290
REMARK  131  A    between atoms: _293  and  _295
REMARK  132  A    between atoms: _295  and  _296
REMARK  133  A    between atoms: _295  and  _298
REMARK  134  A    between atoms: _298  and  _299
REMARK  135  A    between atoms: _299  and  _300
REMARK  136  A    between atoms: _302  and  _304
REMARK  137  A    between atoms: _304  and  _305
REMARK  138  A    between atoms: _304  and  _307
REMARK  139  A    between atoms: _307  and  _308
REMARK  140  A    between atoms: _308  and  _309
REMARK  141  A    between atoms: _312  and  _314
REMARK  142  A    between atoms: _314  and  _315
REMARK  143  A    between atoms: _314  and  _317
REMARK  144  A    between atoms: _317  and  _318
REMARK  145  A    between atoms: _323  and  _324
REMARK  146  A    between atoms: _326  and  _328
REMARK  147  A    between atoms: _328  and  _329
REMARK  148  A    between atoms: _328  and  _331
REMARK  149  A    between atoms: _335  and  _336
REMARK  150  A    between atoms: _341  and  _343
REMARK  151  A    between atoms: _343  and  _344
REMARK  152  A    between atoms: _346  and  _348
REMARK  153  A    between atoms: _348  and  _349
REMARK  154  A    between atoms: _351  and  _353
REMARK  155  A    between atoms: _353  and  _354
REMARK  156  A    between atoms: _353  and  _356
REMARK  157  A    between atoms: _356  and  _357
REMARK  158  A    between atoms: _357  and  _358
REMARK  159  A    between atoms: _361  and  _363
REMARK  160  A    between atoms: _363  and  _364
REMARK  161  A    between atoms: _363  and  _366
REMARK  162  A    between atoms: _366  and  _367
REMARK  163  A    between atoms: _367  and  _368
REMARK  164  A    between atoms: _370  and  _372
REMARK  165  A    between atoms: _372  and  _373
REMARK  166  A    between atoms: _372  and  _375
REMARK  167  A    between atoms: _375  and  _376
REMARK  168  A    between atoms: _382  and  _384
REMARK  169  A    between atoms: _384  and  _385
REMARK  170  A    between atoms: _384  and  _387
REMARK  171  A    between atoms: _387  and  _388
REMARK  172  A    between atoms: _390  and  _392
REMARK  173  A    between atoms: _392  and  _393
REMARK  174  A    between atoms: _392  and  _395
REMARK  175  A    between atoms: _395  and  _396
REMARK  176  A    between atoms: _401  and  _402
REMARK  177  A    between atoms: _404  and  _406
REMARK  178  A    between atoms: _406  and  _407
REMARK  179  A    between atoms: _406  and  _409
REMARK  180  A    between atoms: _409  and  _410
REMARK  181  A    between atoms: _410  and  _411
REMARK  182  A    between atoms: _411  and  _412
REMARK  183  A    between atoms: _421  and  _423
REMARK  184  A    between atoms: _423  and  _424
REMARK  185  A    between atoms: _423  and  _426
REMARK  186  A    between atoms: _426  and  _427
REMARK  187  A    between atoms: _430  and  _432
REMARK  188  A    between atoms: _432  and  _433
REMARK  189  A    between atoms: _432  and  _435
REMARK  190  A    between atoms: _435  and  _436
REMARK  191  A    between atoms: _439  and  _441
REMARK  192  A    between atoms: _441  and  _442
REMARK  193  A    between atoms: _441  and  _444
REMARK  194  A    between atoms: _444  and  _445
REMARK  195  A    between atoms: _445  and  _446
REMARK  196  A    between atoms: _446  and  _447
REMARK  197  A    between atoms: _447  and  _448
REMARK  198  A    between atoms: _453  and  _454
REMARK  199  A    between atoms: _459  and  _461
REMARK  200  A    between atoms: _461  and  _462
REMARK  201  A    between atoms: _461  and  _464
REMARK  202  A    between atoms: _464  and  _465
REMARK  203  A    between atoms: _465  and  _466
REMARK  204  A    between atoms: _469  and  _471
REMARK  205  A    between atoms: _471  and  _472
REMARK  206  A    between atoms: _471  and  _474
REMARK  207  A    between atoms: _474  and  _475
REMARK  208  A    between atoms: _480  and  _482
REMARK  209  A    between atoms: _482  and  _483
REMARK  210  A    between atoms: _482  and  _485
REMARK  211  A    between atoms: _485  and  _486
REMARK  212  A    between atoms: _489  and  _491
REMARK  213  A    between atoms: _491  and  _492
REMARK  214  A    between atoms: _491  and  _494
REMARK  215  A    between atoms: _494  and  _495
REMARK  216  A    between atoms: _498  and  _500
REMARK  217  A    between atoms: _500  and  _501
REMARK  218  A    between atoms: _500  and  _503
REMARK  219  A    between atoms: _503  and  _504
REMARK  220  A    between atoms: _507  and  _509
REMARK  221  A    between atoms: _509  and  _510
REMARK  222  A    between atoms: _509  and  _512
REMARK  223  A    between atoms: _512  and  _513
REMARK  224  A    between atoms: _513  and  _514
REMARK  225  A    between atoms: _519  and  _521
REMARK  226  A    between atoms: _521  and  _522
REMARK  227  A    between atoms: _521  and  _524
REMARK  228  A    between atoms: _527  and  _529
REMARK  229  A    between atoms: _529  and  _530
REMARK  230  A    between atoms: _529  and  _532
REMARK  231  A    between atoms: _532  and  _533
REMARK  232  A    between atoms: _536  and  _538
REMARK  233  A    between atoms: _538  and  _539
REMARK  234  A    between atoms: _538  and  _541
REMARK  235  A    between atoms: _541  and  _542
REMARK  236  A    between atoms: _545  and  _547
REMARK  237  A    between atoms: _547  and  _548
REMARK  238  A    between atoms: _547  and  _550
REMARK  239  A    between atoms: _550  and  _551
REMARK  240  A    between atoms: _557  and  _559
REMARK  241  A    between atoms: _559  and  _560
REMARK  242  A    between atoms: _562  and  _564
REMARK  243  A    between atoms: _564  and  _565
REMARK  244  A    between atoms: _564  and  _567
REMARK  245  A    between atoms: _567  and  _568
REMARK  246  A    between atoms: _574  and  _576
REMARK  247  A    between atoms: _576  and  _577
REMARK  248  A    between atoms: _576  and  _579
REMARK  249  A    between atoms: _581  and  _583
REMARK  250  A    between atoms: _583  and  _584
REMARK  251  A    between atoms: _586  and  _588
REMARK  252  A    between atoms: _588  and  _589
REMARK  253  A    between atoms: _588  and  _591
REMARK  254  A    between atoms: _591  and  _592
REMARK  255  A    between atoms: _596  and  _597
REMARK  256  A    between atoms: _602  and  _604
REMARK  257  A    between atoms: _604  and  _605
REMARK  258  A    between atoms: _604  and  _607
REMARK  259  A    between atoms: _607  and  _608
REMARK  260  A    between atoms: _613  and  _614
REMARK  261  A    between atoms: _616  and  _618
REMARK  262  A    between atoms: _618  and  _619
REMARK  263  A    between atoms: _618  and  _621
REMARK  264  A    between atoms: _621  and  _622
REMARK  265  A    between atoms: _625  and  _627
REMARK  266  A    between atoms: _627  and  _628
REMARK  267  A    between atoms: _627  and  _630
REMARK  268  A    between atoms: _630  and  _631
REMARK  269  A    between atoms: _636  and  _638
REMARK  270  A    between atoms: _638  and  _639
REMARK  271  A    between atoms: _638  and  _641
REMARK  272  A    between atoms: _641  and  _642
REMARK  273  A    between atoms: _648  and  _650
REMARK  274  A    between atoms: _650  and  _651
REMARK  275  A    between atoms: _650  and  _653
REMARK  276  A    between atoms: _653  and  _654
REMARK  277  A    between atoms: _657  and  _659
REMARK  278  A    between atoms: _659  and  _660
REMARK  279  A    between atoms: _659  and  _662
REMARK  280  A    between atoms: _662  and  _663
REMARK  281  A    between atoms: _668  and  _669
REMARK  282  A    between atoms: _671  and  _673
REMARK  283  A    between atoms: _673  and  _674
REMARK  284  A    between atoms: _673  and  _676
REMARK  285  A    between atoms: _676  and  _677
REMARK  286  A    between atoms: _677  and  _678
REMARK                            x       y       z     vdW  Elec       q    Type
REMARK                         _______ _______ _______ _____ _____    ______ ____
ROOT
ATOM      1  O   HOH     1      32.294  16.818  13.343  0.00  0.00    +0.000 OA
ENDROOT
TORSDOF 0
REMARK  Name = ../refined-set-2016/3bwj/3bwj_pocket.pdb
REMARK  286 active torsions:
REMARK  status: ('A' for Active; 'I' for Inactive)
REMARK    1  A    between atoms: _1  and  _3
REMARK    2  A    between atoms: _3  and  _4
REMARK    3  A    between atoms: _3  and  _6
REMARK    4  A    between atoms: _6  and  _7
REMARK    5  A    between atoms: _10  and  _12
REMARK    6  A    between atoms: _12  and  _13
REMARK    7  A    between atoms: _12  and  _15
REMARK    8  A    between atoms: _15  and  _16
REMARK    9  A    between atoms: _19  and  _21
REMARK   10  A    between atoms: _21  and  _22
REMARK   11  A    between atoms: _24  and  _26
REMARK   12  A    between atoms: _26  and  _27
REMARK   13  A    between atoms: _26  and  _29
REMARK   14  A    between atoms: _29  and  _30
REMARK   15  A    between atoms: _33  and  _35
REMARK   16  A    between atoms: _35  and  _36
REMARK   17  A    between atoms: _38  and  _40
REMARK   18  A    between atoms: _40  and  _41
REMARK   19  A    between atoms: _40  and  _43
REMARK   20  A    between atoms: _43  and  _44
REMARK   21  A    between atoms: _46  and  _48
REMARK   22  A    between atoms: _48  and  _49
REMARK   23  A    between atoms: _48  and  _51
REMARK   24  A    between atoms: _51  and  _52
REMARK   25  A    between atoms: _58  and  _60
REMARK   26  A    between atoms: _60  and  _61
REMARK   27  A    between atoms: _63  and  _65
REMARK   28  A    between atoms: _65  and  _66
REMARK   29  A    between atoms: _65  and  _68
REMARK   30  A    between atoms: _68  and  _69
REMARK   31  A    between atoms: _69  and  _70
REMARK   32  A    between atoms: _70  and  _71
REMARK   33  A    between atoms: _80  and  _82
REMARK   34  A    between atoms: _82  and  _83
REMARK   35  A    between atoms: _82  and  _85
REMARK   36  A    between atoms: _88  and  _90
REMARK   37  A    between atoms: _90  and  _91
REMARK   38  A    between atoms: _90  and  _93
REMARK   39  A    between atoms: _93  and  _94
REMARK   40  A    between atoms: _94  and  _95
REMARK   41  A    between atoms: _97  and  _99
REMARK   42  A    between atoms: _99  and  _100
REMARK   43  A    between atoms: _99  and  _102
REMARK   44  A    between atoms: _102  and  _103
REMARK   45  A    between atoms: _106  and  _108
REMARK   46  A    between atoms: _108  and  _109
REMARK   47  A    between atoms: _108  and  _111
REMARK   48  A    between atoms: _111  and  _112
REMARK   49  A    between atoms: _117  and  _118
REMARK   50  A    between atoms: _120  and  _122
REMARK   51  A    between atoms: _122  and  _123
REMARK   52  A    between atoms: _126  and  _128
REMARK   53  A    between atoms: _128  and  _129
REMARK   54  A    between atoms: _128  and  _131
REMARK   55  A    between atoms: _131  and  _132
REMARK   56  A    between atoms: _132  and  _133
REMARK   57  A    between atoms: _135  and  _137
REMARK   58  A    between atoms: _137  and  _138
REMARK   59  A    between atoms: _137  and  _140
REMARK   60  A    between atoms: _140  and  _141
REMARK   61  A    between atoms: _141  and  _142
REMARK   62  A    between atoms: _142  and  _143
REMARK   63  A    between atoms: _143  and  _144
REMARK   64  A    between atoms: _148  and  _150
REMARK   65  A    between atoms: _150  and  _151
REMARK   66  A    between atoms: _150  and  _153
REMARK   67  A    between atoms: _153  and  _154
REMARK   68  A    between atoms: _157  and  _159
REMARK   69  A    between atoms: _159  and  _160
REMARK   70  A    between atoms: _159  and  _162
REMARK   71  A    between atoms: _162  and  _163
REMARK   72  A    between atoms: _166  and  _168
REMARK   73  A    between atoms: _168  and  _169
REMARK   74  A    between atoms: _168  and  _171
REMARK   75  A    between atoms: _171  and  _172
REMARK   76  A    between atoms: _175  and  _177
REMARK   77  A    between atoms: _177  and  _178
REMARK   78  A    between atoms: _177  and  _180
REMARK   79  A    between atoms: _180  and  _181
REMARK   80  A    between atoms: _181  and  _182
REMARK   81  A    between atoms: _182  and  _183
REMARK   82  A    between atoms: _183  and  _184
REMARK   83  A    between atoms: _188  and  _190
REMARK   84  A    between atoms: _190  and  _191
REMARK   85  A    between atoms: _190  and  _193
REMARK   86  A    between atoms: _196  and  _198
REMARK   87  A    between atoms: _198  and  _199
REMARK   88  A    between atoms: _198  and  _201
REMARK   89  A    between atoms: _201  and  _202
REMARK   90  A    between atoms: _205  and  _207
REMARK   91  A    between atoms: _207  and  _208
REMARK   92  A    between atoms: _207  and  _210
REMARK   93  A    between atoms: _210  and  _211
REMARK   94  A    between atoms: _211  and  _212
REMARK   95  A    between atoms: _217  and  _219
REMARK   96  A    between atoms: _219  and  _220
REMARK   97  A    between atoms: _219  and  _222
REMARK   98  A    between atoms: _222  and  _223
REMARK   99  A    between atoms: _226  and  _228
REMARK  100  A    between atoms: _228  and  _229
REMARK  101  A    between atoms: _228  and  _231
REMARK  102  A    between atoms: _231  and  _232
REMARK  103  A    between atoms: _232  and  _233
REMARK  104  A    between atoms: _236  and  _238
REMARK  105  A    between atoms: _238  and  _239
REMARK  106  A    between atoms: _238  and  _241
REMARK  107  A    between atoms: _244  and  _246
REMARK  108  A    between atoms: _246  and  _247
REMARK  109  A    between atoms: _246  and  _249
REMARK  110  A    between atoms: _249  and  _250
REMARK  111  A    between atoms: _250  and  _251
REMARK  112  A    between atoms: _251  and  _252
REMARK  113  A    between atoms: _252  and  _253
REMARK  114  A    between atoms: _257  and  _259
REMARK  115  A    between atoms: _259  and  _260
REMARK  116  A    between atoms: _259  and  _262
REMARK  117  A    between atoms: _262  and  _263
REMARK  118  A    between atoms: _266  and  _268
REMARK  119  A    between atoms: _268  and  _269
REMARK  120  A    between atoms: _268  and  _271
REMARK  121  A    between atoms: _271  and  _272
REMARK  122  A    between atoms: _272  and  _273
REMARK  123  A    between atoms: _276  and  _278
REMARK  124  A    between atoms: _278  and  _279
REMARK  125  A    between atoms: _278  and  _281
REMARK  126  A    between atoms: _281  and  _282
REMARK  127  A    between atoms: _282  and  _283
REMARK  128  A    between atoms: _285  and  _287
REMARK  129  A    between atoms: _287  and  _288
REMARK  130  A    between atoms: _287  and  _290
REMARK  131  A    between atoms: _293  and  _295
REMARK  132  A    between atoms: _295  and  _296
REMARK  133  A    between atoms: _295  and  _298
REMARK  134  A    between atoms: _298  and  _299
REMARK  135  A    between atoms: _299  and  _300
REMARK  136  A    between atoms: _302  and  _304
REMARK  137  A    between atoms: _304  and  _305
REMARK  138  A    between atoms: _304  and  _307
REMARK  139  A    between atoms: _307  and  _308
REMARK  140  A    between atoms: _308  and  _309
REMARK  141  A    between atoms: _312  and  _314
REMARK  142  A    between atoms: _314  and  _315
REMARK  143  A    between atoms: _314  and  _317
REMARK  144  A    between atoms: _317  and  _318
REMARK  145  A    between atoms: _323  and  _324
REMARK  146  A    between atoms: _326  and  _328
REMARK  147  A    between atoms: _328  and  _329
REMARK  148  A    between atoms: _328  and  _331
REMARK  149  A    between atoms: _335  and  _336
REMARK  150  A    between atoms: _341  and  _343
REMARK  151  A    between atoms: _343  and  _344
REMARK  152  A    between atoms: _346  and  _348
REMARK  153  A    between atoms: _348  and  _349
REMARK  154  A    between atoms: _351  and  _353
REMARK  155  A    between atoms: _353  and  _354
REMARK  156  A    between atoms: _353  and  _356
REMARK  157  A    between atoms: _356  and  _357
REMARK  158  A    between atoms: _357  and  _358
REMARK  159  A    between atoms: _361  and  _363
REMARK  160  A    between atoms: _363  and  _364
REMARK  161  A    between atoms: _363  and  _366
REMARK  162  A    between atoms: _366  and  _367
REMARK  163  A    between atoms: _367  and  _368
REMARK  164  A    between atoms: _370  and  _372
REMARK  165  A    between atoms: _372  and  _373
REMARK  166  A    between atoms: _372  and  _375
REMARK  167  A    between atoms: _375  and  _376
REMARK  168  A    between atoms: _382  and  _384
REMARK  169  A    between atoms: _384  and  _385
REMARK  170  A    between atoms: _384  and  _387
REMARK  171  A    between atoms: _387  and  _388
REMARK  172  A    between atoms: _390  and  _392
REMARK  173  A    between atoms: _392  and  _393
REMARK  174  A    between atoms: _392  and  _395
REMARK  175  A    between atoms: _395  and  _396
REMARK  176  A    between atoms: _401  and  _402
REMARK  177  A    between atoms: _404  and  _406
REMARK  178  A    between atoms: _406  and  _407
REMARK  179  A    between atoms: _406  and  _409
REMARK  180  A    between atoms: _409  and  _410
REMARK  181  A    between atoms: _410  and  _411
REMARK  182  A    between atoms: _411  and  _412
REMARK  183  A    between atoms: _421  and  _423
REMARK  184  A    between atoms: _423  and  _424
REMARK  185  A    between atoms: _423  and  _426
REMARK  186  A    between atoms: _426  and  _427
REMARK  187  A    between atoms: _430  and  _432
REMARK  188  A    between atoms: _432  and  _433
REMARK  189  A    between atoms: _432  and  _435
REMARK  190  A    between atoms: _435  and  _436
REMARK  191  A    between atoms: _439  and  _441
REMARK  192  A    between atoms: _441  and  _442
REMARK  193  A    between atoms: _441  and  _444
REMARK  194  A    between atoms: _444  and  _445
REMARK  195  A    between atoms: _445  and  _446
REMARK  196  A    between atoms: _446  and  _447
REMARK  197  A    between atoms: _447  and  _448
REMARK  198  A    between atoms: _453  and  _454
REMARK  199  A    between atoms: _459  and  _461
REMARK  200  A    between atoms: _461  and  _462
REMARK  201  A    between atoms: _461  and  _464
REMARK  202  A    between atoms: _464  and  _465
REMARK  203  A    between atoms: _465  and  _466
REMARK  204  A    between atoms: _469  and  _471
REMARK  205  A    between atoms: _471  and  _472
REMARK  206  A    between atoms: _471  and  _474
REMARK  207  A    between atoms: _474  and  _475
REMARK  208  A    between atoms: _480  and  _482
REMARK  209  A    between atoms: _482  and  _483
REMARK  210  A    between atoms: _482  and  _485
REMARK  211  A    between atoms: _485  and  _486
REMARK  212  A    between atoms: _489  and  _491
REMARK  213  A    between atoms: _491  and  _492
REMARK  214  A    between atoms: _491  and  _494
REMARK  215  A    between atoms: _494  and  _495
REMARK  216  A    between atoms: _498  and  _500
REMARK  217  A    between atoms: _500  and  _501
REMARK  218  A    between atoms: _500  and  _503
REMARK  219  A    between atoms: _503  and  _504
REMARK  220  A    between atoms: _507  and  _509
REMARK  221  A    between atoms: _509  and  _510
REMARK  222  A    between atoms: _509  and  _512
REMARK  223  A    between atoms: _512  and  _513
REMARK  224  A    between atoms: _513  and  _514
REMARK  225  A    between atoms: _519  and  _521
REMARK  226  A    between atoms: _521  and  _522
REMARK  227  A    between atoms: _521  and  _524
REMARK  228  A    between atoms: _527  and  _529
REMARK  229  A    between atoms: _529  and  _530
REMARK  230  A    between atoms: _529  and  _532
REMARK  231  A    between atoms: _532  and  _533
REMARK  232  A    between atoms: _536  and  _538
REMARK  233  A    between atoms: _538  and  _539
REMARK  234  A    between atoms: _538  and  _541
REMARK  235  A    between atoms: _541  and  _542
REMARK  236  A    between atoms: _545  and  _547
REMARK  237  A    between atoms: _547  and  _548
REMARK  238  A    between atoms: _547  and  _550
REMARK  239  A    between atoms: _550  and  _551
REMARK  240  A    between atoms: _557  and  _559
REMARK  241  A    between atoms: _559  and  _560
REMARK  242  A    between atoms: _562  and  _564
REMARK  243  A    between atoms: _564  and  _565
REMARK  244  A    between atoms: _564  and  _567
REMARK  245  A    between atoms: _567  and  _568
REMARK  246  A    between atoms: _574  and  _576
REMARK  247  A    between atoms: _576  and  _577
REMARK  248  A    between atoms: _576  and  _579
REMARK  249  A    between atoms: _581  and  _583
REMARK  250  A    between atoms: _583  and  _584
REMARK  251  A    between atoms: _586  and  _588
REMARK  252  A    between atoms: _588  and  _589
REMARK  253  A    between atoms: _588  and  _591
REMARK  254  A    between atoms: _591  and  _592
REMARK  255  A    between atoms: _596  and  _597
REMARK  256  A    between atoms: _602  and  _604
REMARK  257  A    between atoms: _604  and  _605
REMARK  258  A    between atoms: _604  and  _607
REMARK  259  A    between atoms: _607  and  _608
REMARK  260  A    between atoms: _613  and  _614
REMARK  261  A    between atoms: _616  and  _618
REMARK  262  A    between atoms: _618  and  _619
REMARK  263  A    between atoms: _618  and  _621
REMARK  264  A    between atoms: _621  and  _622
REMARK  265  A    between atoms: _625  and  _627
REMARK  266  A    between atoms: _627  and  _628
REMARK  267  A    between atoms: _627  and  _630
REMARK  268  A    between atoms: _630  and  _631
REMARK  269  A    between atoms: _636  and  _638
REMARK  270  A    between atoms: _638  and  _639
REMARK  271  A    between atoms: _638  and  _641
REMARK  272  A    between atoms: _641  and  _642
REMARK  273  A    between atoms: _648  and  _650
REMARK  274  A    between atoms: _650  and  _651
REMARK  275  A    between atoms: _650  and  _653
REMARK  276  A    between atoms: _653  and  _654
REMARK  277  A    between atoms: _657  and  _659
REMARK  278  A    between atoms: _659  and  _660
REMARK  279  A    between atoms: _659  and  _662
REMARK  280  A    between atoms: _662  and  _663
REMARK  281  A    between atoms: _668  and  _669
REMARK  282  A    between atoms: _671  and  _673
REMARK  283  A    between atoms: _673  and  _674
REMARK  284  A    between atoms: _673  and  _676
REMARK  285  A    between atoms: _676  and  _677
REMARK  286  A    between atoms: _677  and  _678
REMARK                            x       y       z     vdW  Elec       q    Type
REMARK                         _______ _______ _______ _____ _____    ______ ____
ROOT
ATOM      1  O   HOH     1      34.237  25.300  12.912  0.00  0.00    +0.000 OA
ENDROOT
TORSDOF 0
REMARK  Name = ../refined-set-2016/3bwj/3bwj_pocket.pdb
REMARK  286 active torsions:
REMARK  status: ('A' for Active; 'I' for Inactive)
REMARK    1  A    between atoms: _1  and  _3
REMARK    2  A    between atoms: _3  and  _4
REMARK    3  A    between atoms: _3  and  _6
REMARK    4  A    between atoms: _6  and  _7
REMARK    5  A    between atoms: _10  and  _12
REMARK    6  A    between atoms: _12  and  _13
REMARK    7  A    between atoms: _12  and  _15
REMARK    8  A    between atoms: _15  and  _16
REMARK    9  A    between atoms: _19  and  _21
REMARK   10  A    between atoms: _21  and  _22
REMARK   11  A    between atoms: _24  and  _26
REMARK   12  A    between atoms: _26  and  _27
REMARK   13  A    between atoms: _26  and  _29
REMARK   14  A    between atoms: _29  and  _30
REMARK   15  A    between atoms: _33  and  _35
REMARK   16  A    between atoms: _35  and  _36
REMARK   17  A    between atoms: _38  and  _40
REMARK   18  A    between atoms: _40  and  _41
REMARK   19  A    between atoms: _40  and  _43
REMARK   20  A    between atoms: _43  and  _44
REMARK   21  A    between atoms: _46  and  _48
REMARK   22  A    between atoms: _48  and  _49
REMARK   23  A    between atoms: _48  and  _51
REMARK   24  A    between atoms: _51  and  _52
REMARK   25  A    between atoms: _58  and  _60
REMARK   26  A    between atoms: _60  and  _61
REMARK   27  A    between atoms: _63  and  _65
REMARK   28  A    between atoms: _65  and  _66
REMARK   29  A    between atoms: _65  and  _68
REMARK   30  A    between atoms: _68  and  _69
REMARK   31  A    between atoms: _69  and  _70
REMARK   32  A    between atoms: _70  and  _71
REMARK   33  A    between atoms: _80  and  _82
REMARK   34  A    between atoms: _82  and  _83
REMARK   35  A    between atoms: _82  and  _85
REMARK   36  A    between atoms: _88  and  _90
REMARK   37  A    between atoms: _90  and  _91
REMARK   38  A    between atoms: _90  and  _93
REMARK   39  A    between atoms: _93  and  _94
REMARK   40  A    between atoms: _94  and  _95
REMARK   41  A    between atoms: _97  and  _99
REMARK   42  A    between atoms: _99  and  _100
REMARK   43  A    between atoms: _99  and  _102
REMARK   44  A    between atoms: _102  and  _103
REMARK   45  A    between atoms: _106  and  _108
REMARK   46  A    between atoms: _108  and  _109
REMARK   47  A    between atoms: _108  and  _111
REMARK   48  A    between atoms: _111  and  _112
REMARK   49  A    between atoms: _117  and  _118
REMARK   50  A    between atoms: _120  and  _122
REMARK   51  A    between atoms: _122  and  _123
REMARK   52  A    between atoms: _126  and  _128
REMARK   53  A    between atoms: _128  and  _129
REMARK   54  A    between atoms: _128  and  _131
REMARK   55  A    between atoms: _131  and  _132
REMARK   56  A    between atoms: _132  and  _133
REMARK   57  A    between atoms: _135  and  _137
REMARK   58  A    between atoms: _137  and  _138
REMARK   59  A    between atoms: _137  and  _140
REMARK   60  A    between atoms: _140  and  _141
REMARK   61  A    between atoms: _141  and  _142
REMARK   62  A    between atoms: _142  and  _143
REMARK   63  A    between atoms: _143  and  _144
REMARK   64  A    between atoms: _148  and  _150
REMARK   65  A    between atoms: _150  and  _151
REMARK   66  A    between atoms: _150  and  _153
REMARK   67  A    between atoms: _153  and  _154
REMARK   68  A    between atoms: _157  and  _159
REMARK   69  A    between atoms: _159  and  _160
REMARK   70  A    between atoms: _159  and  _162
REMARK   71  A    between atoms: _162  and  _163
REMARK   72  A    between atoms: _166  and  _168
REMARK   73  A    between atoms: _168  and  _169
REMARK   74  A    between atoms: _168  and  _171
REMARK   75  A    between atoms: _171  and  _172
REMARK   76  A    between atoms: _175  and  _177
REMARK   77  A    between atoms: _177  and  _178
REMARK   78  A    between atoms: _177  and  _180
REMARK   79  A    between atoms: _180  and  _181
REMARK   80  A    between atoms: _181  and  _182
REMARK   81  A    between atoms: _182  and  _183
REMARK   82  A    between atoms: _183  and  _184
REMARK   83  A    between atoms: _188  and  _190
REMARK   84  A    between atoms: _190  and  _191
REMARK   85  A    between atoms: _190  and  _193
REMARK   86  A    between atoms: _196  and  _198
REMARK   87  A    between atoms: _198  and  _199
REMARK   88  A    between atoms: _198  and  _201
REMARK   89  A    between atoms: _201  and  _202
REMARK   90  A    between atoms: _205  and  _207
REMARK   91  A    between atoms: _207  and  _208
REMARK   92  A    between atoms: _207  and  _210
REMARK   93  A    between atoms: _210  and  _211
REMARK   94  A    between atoms: _211  and  _212
REMARK   95  A    between atoms: _217  and  _219
REMARK   96  A    between atoms: _219  and  _220
REMARK   97  A    between atoms: _219  and  _222
REMARK   98  A    between atoms: _222  and  _223
REMARK   99  A    between atoms: _226  and  _228
REMARK  100  A    between atoms: _228  and  _229
REMARK  101  A    between atoms: _228  and  _231
REMARK  102  A    between atoms: _231  and  _232
REMARK  103  A    between atoms: _232  and  _233
REMARK  104  A    between atoms: _236  and  _238
REMARK  105  A    between atoms: _238  and  _239
REMARK  106  A    between atoms: _238  and  _241
REMARK  107  A    between atoms: _244  and  _246
REMARK  108  A    between atoms: _246  and  _247
REMARK  109  A    between atoms: _246  and  _249
REMARK  110  A    between atoms: _249  and  _250
REMARK  111  A    between atoms: _250  and  _251
REMARK  112  A    between atoms: _251  and  _252
REMARK  113  A    between atoms: _252  and  _253
REMARK  114  A    between atoms: _257  and  _259
REMARK  115  A    between atoms: _259  and  _260
REMARK  116  A    between atoms: _259  and  _262
REMARK  117  A    between atoms: _262  and  _263
REMARK  118  A    between atoms: _266  and  _268
REMARK  119  A    between atoms: _268  and  _269
REMARK  120  A    between atoms: _268  and  _271
REMARK  121  A    between atoms: _271  and  _272
REMARK  122  A    between atoms: _272  and  _273
REMARK  123  A    between atoms: _276  and  _278
REMARK  124  A    between atoms: _278  and  _279
REMARK  125  A    between atoms: _278  and  _281
REMARK  126  A    between atoms: _281  and  _282
REMARK  127  A    between atoms: _282  and  _283
REMARK  128  A    between atoms: _285  and  _287
REMARK  129  A    between atoms: _287  and  _288
REMARK  130  A    between atoms: _287  and  _290
REMARK  131  A    between atoms: _293  and  _295
REMARK  132  A    between atoms: _295  and  _296
REMARK  133  A    between atoms: _295  and  _298
REMARK  134  A    between atoms: _298  and  _299
REMARK  135  A    between atoms: _299  and  _300
REMARK  136  A    between atoms: _302  and  _304
REMARK  137  A    between atoms: _304  and  _305
REMARK  138  A    between atoms: _304  and  _307
REMARK  139  A    between atoms: _307  and  _308
REMARK  140  A    between atoms: _308  and  _309
REMARK  141  A    between atoms: _312  and  _314
REMARK  142  A    between atoms: _314  and  _315
REMARK  143  A    between atoms: _314  and  _317
REMARK  144  A    between atoms: _317  and  _318
REMARK  145  A    between atoms: _323  and  _324
REMARK  146  A    between atoms: _326  and  _328
REMARK  147  A    between atoms: _328  and  _329
REMARK  148  A    between atoms: _328  and  _331
REMARK  149  A    between atoms: _335  and  _336
REMARK  150  A    between atoms: _341  and  _343
REMARK  151  A    between atoms: _343  and  _344
REMARK  152  A    between atoms: _346  and  _348
REMARK  153  A    between atoms: _348  and  _349
REMARK  154  A    between atoms: _351  and  _353
REMARK  155  A    between atoms: _353  and  _354
REMARK  156  A    between atoms: _353  and  _356
REMARK  157  A    between atoms: _356  and  _357
REMARK  158  A    between atoms: _357  and  _358
REMARK  159  A    between atoms: _361  and  _363
REMARK  160  A    between atoms: _363  and  _364
REMARK  161  A    between atoms: _363  and  _366
REMARK  162  A    between atoms: _366  and  _367
REMARK  163  A    between atoms: _367  and  _368
REMARK  164  A    between atoms: _370  and  _372
REMARK  165  A    between atoms: _372  and  _373
REMARK  166  A    between atoms: _372  and  _375
REMARK  167  A    between atoms: _375  and  _376
REMARK  168  A    between atoms: _382  and  _384
REMARK  169  A    between atoms: _384  and  _385
REMARK  170  A    between atoms: _384  and  _387
REMARK  171  A    between atoms: _387  and  _388
REMARK  172  A    between atoms: _390  and  _392
REMARK  173  A    between atoms: _392  and  _393
REMARK  174  A    between atoms: _392  and  _395
REMARK  175  A    between atoms: _395  and  _396
REMARK  176  A    between atoms: _401  and  _402
REMARK  177  A    between atoms: _404  and  _406
REMARK  178  A    between atoms: _406  and  _407
REMARK  179  A    between atoms: _406  and  _409
REMARK  180  A    between atoms: _409  and  _410
REMARK  181  A    between atoms: _410  and  _411
REMARK  182  A    between atoms: _411  and  _412
REMARK  183  A    between atoms: _421  and  _423
REMARK  184  A    between atoms: _423  and  _424
REMARK  185  A    between atoms: _423  and  _426
REMARK  186  A    between atoms: _426  and  _427
REMARK  187  A    between atoms: _430  and  _432
REMARK  188  A    between atoms: _432  and  _433
REMARK  189  A    between atoms: _432  and  _435
REMARK  190  A    between atoms: _435  and  _436
REMARK  191  A    between atoms: _439  and  _441
REMARK  192  A    between atoms: _441  and  _442
REMARK  193  A    between atoms: _441  and  _444
REMARK  194  A    between atoms: _444  and  _445
REMARK  195  A    between atoms: _445  and  _446
REMARK  196  A    between atoms: _446  and  _447
REMARK  197  A    between atoms: _447  and  _448
REMARK  198  A    between atoms: _453  and  _454
REMARK  199  A    between atoms: _459  and  _461
REMARK  200  A    between atoms: _461  and  _462
REMARK  201  A    between atoms: _461  and  _464
REMARK  202  A    between atoms: _464  and  _465
REMARK  203  A    between atoms: _465  and  _466
REMARK  204  A    between atoms: _469  and  _471
REMARK  205  A    between atoms: _471  and  _472
REMARK  206  A    between atoms: _471  and  _474
REMARK  207  A    between atoms: _474  and  _475
REMARK  208  A    between atoms: _480  and  _482
REMARK  209  A    between atoms: _482  and  _483
REMARK  210  A    between atoms: _482  and  _485
REMARK  211  A    between atoms: _485  and  _486
REMARK  212  A    between atoms: _489  and  _491
REMARK  213  A    between atoms: _491  and  _492
REMARK  214  A    between atoms: _491  and  _494
REMARK  215  A    between atoms: _494  and  _495
REMARK  216  A    between atoms: _498  and  _500
REMARK  217  A    between atoms: _500  and  _501
REMARK  218  A    between atoms: _500  and  _503
REMARK  219  A    between atoms: _503  and  _504
REMARK  220  A    between atoms: _507  and  _509
REMARK  221  A    between atoms: _509  and  _510
REMARK  222  A    between atoms: _509  and  _512
REMARK  223  A    between atoms: _512  and  _513
REMARK  224  A    between atoms: _513  and  _514
REMARK  225  A    between atoms: _519  and  _521
REMARK  226  A    between atoms: _521  and  _522
REMARK  227  A    between atoms: _521  and  _524
REMARK  228  A    between atoms: _527  and  _529
REMARK  229  A    between atoms: _529  and  _530
REMARK  230  A    between atoms: _529  and  _532
REMARK  231  A    between atoms: _532  and  _533
REMARK  232  A    between atoms: _536  and  _538
REMARK  233  A    between atoms: _538  and  _539
REMARK  234  A    between atoms: _538  and  _541
REMARK  235  A    between atoms: _541  and  _542
REMARK  236  A    between atoms: _545  and  _547
REMARK  237  A    between atoms: _547  and  _548
REMARK  238  A    between atoms: _547  and  _550
REMARK  239  A    between atoms: _550  and  _551
REMARK  240  A    between atoms: _557  and  _559
REMARK  241  A    between atoms: _559  and  _560
REMARK  242  A    between atoms: _562  and  _564
REMARK  243  A    between atoms: _564  and  _565
REMARK  244  A    between atoms: _564  and  _567
REMARK  245  A    between atoms: _567  and  _568
REMARK  246  A    between atoms: _574  and  _576
REMARK  247  A    between atoms: _576  and  _577
REMARK  248  A    between atoms: _576  and  _579
REMARK  249  A    between atoms: _581  and  _583
REMARK  250  A    between atoms: _583  and  _584
REMARK  251  A    between atoms: _586  and  _588
REMARK  252  A    between atoms: _588  and  _589
REMARK  253  A    between atoms: _588  and  _591
REMARK  254  A    between atoms: _591  and  _592
REMARK  255  A    between atoms: _596  and  _597
REMARK  256  A    between atoms: _602  and  _604
REMARK  257  A    between atoms: _604  and  _605
REMARK  258  A    between atoms: _604  and  _607
REMARK  259  A    between atoms: _607  and  _608
REMARK  260  A    between atoms: _613  and  _614
REMARK  261  A    between atoms: _616  and  _618
REMARK  262  A    between atoms: _618  and  _619
REMARK  263  A    between atoms: _618  and  _621
REMARK  264  A    between atoms: _621  and  _622
REMARK  265  A    between atoms: _625  and  _627
REMARK  266  A    between atoms: _627  and  _628
REMARK  267  A    between atoms: _627  and  _630
REMARK  268  A    between atoms: _630  and  _631
REMARK  269  A    between atoms: _636  and  _638
REMARK  270  A    between atoms: _638  and  _639
REMARK  271  A    between atoms: _638  and  _641
REMARK  272  A    between atoms: _641  and  _642
REMARK  273  A    between atoms: _648  and  _650
REMARK  274  A    between atoms: _650  and  _651
REMARK  275  A    between atoms: _650  and  _653
REMARK  276  A    between atoms: _653  and  _654
REMARK  277  A    between atoms: _657  and  _659
REMARK  278  A    between atoms: _659  and  _660
REMARK  279  A    between atoms: _659  and  _662
REMARK  280  A    between atoms: _662  and  _663
REMARK  281  A    between atoms: _668  and  _669
REMARK  282  A    between atoms: _671  and  _673
REMARK  283  A    between atoms: _673  and  _674
REMARK  284  A    between atoms: _673  and  _676
REMARK  285  A    between atoms: _676  and  _677
REMARK  286  A    between atoms: _677  and  _678
REMARK                            x       y       z     vdW  Elec       q    Type
REMARK                         _______ _______ _______ _____ _____    ______ ____
ROOT
ATOM      1  O   HOH     1      32.903  27.340  12.372  0.00  0.00    +0.000 OA
ENDROOT
TORSDOF 0
REMARK  Name = ../refined-set-2016/3bwj/3bwj_pocket.pdb
REMARK  286 active torsions:
REMARK  status: ('A' for Active; 'I' for Inactive)
REMARK    1  A    between atoms: _1  and  _3
REMARK    2  A    between atoms: _3  and  _4
REMARK    3  A    between atoms: _3  and  _6
REMARK    4  A    between atoms: _6  and  _7
REMARK    5  A    between atoms: _10  and  _12
REMARK    6  A    between atoms: _12  and  _13
REMARK    7  A    between atoms: _12  and  _15
REMARK    8  A    between atoms: _15  and  _16
REMARK    9  A    between atoms: _19  and  _21
REMARK   10  A    between atoms: _21  and  _22
REMARK   11  A    between atoms: _24  and  _26
REMARK   12  A    between atoms: _26  and  _27
REMARK   13  A    between atoms: _26  and  _29
REMARK   14  A    between atoms: _29  and  _30
REMARK   15  A    between atoms: _33  and  _35
REMARK   16  A    between atoms: _35  and  _36
REMARK   17  A    between atoms: _38  and  _40
REMARK   18  A    between atoms: _40  and  _41
REMARK   19  A    between atoms: _40  and  _43
REMARK   20  A    between atoms: _43  and  _44
REMARK   21  A    between atoms: _46  and  _48
REMARK   22  A    between atoms: _48  and  _49
REMARK   23  A    between atoms: _48  and  _51
REMARK   24  A    between atoms: _51  and  _52
REMARK   25  A    between atoms: _58  and  _60
REMARK   26  A    between atoms: _60  and  _61
REMARK   27  A    between atoms: _63  and  _65
REMARK   28  A    between atoms: _65  and  _66
REMARK   29  A    between atoms: _65  and  _68
REMARK   30  A    between atoms: _68  and  _69
REMARK   31  A    between atoms: _69  and  _70
REMARK   32  A    between atoms: _70  and  _71
REMARK   33  A    between atoms: _80  and  _82
REMARK   34  A    between atoms: _82  and  _83
REMARK   35  A    between atoms: _82  and  _85
REMARK   36  A    between atoms: _88  and  _90
REMARK   37  A    between atoms: _90  and  _91
REMARK   38  A    between atoms: _90  and  _93
REMARK   39  A    between atoms: _93  and  _94
REMARK   40  A    between atoms: _94  and  _95
REMARK   41  A    between atoms: _97  and  _99
REMARK   42  A    between atoms: _99  and  _100
REMARK   43  A    between atoms: _99  and  _102
REMARK   44  A    between atoms: _102  and  _103
REMARK   45  A    between atoms: _106  and  _108
REMARK   46  A    between atoms: _108  and  _109
REMARK   47  A    between atoms: _108  and  _111
REMARK   48  A    between atoms: _111  and  _112
REMARK   49  A    between atoms: _117  and  _118
REMARK   50  A    between atoms: _120  and  _122
REMARK   51  A    between atoms: _122  and  _123
REMARK   52  A    between atoms: _126  and  _128
REMARK   53  A    between atoms: _128  and  _129
REMARK   54  A    between atoms: _128  and  _131
REMARK   55  A    between atoms: _131  and  _132
REMARK   56  A    between atoms: _132  and  _133
REMARK   57  A    between atoms: _135  and  _137
REMARK   58  A    between atoms: _137  and  _138
REMARK   59  A    between atoms: _137  and  _140
REMARK   60  A    between atoms: _140  and  _141
REMARK   61  A    between atoms: _141  and  _142
REMARK   62  A    between atoms: _142  and  _143
REMARK   63  A    between atoms: _143  and  _144
REMARK   64  A    between atoms: _148  and  _150
REMARK   65  A    between atoms: _150  and  _151
REMARK   66  A    between atoms: _150  and  _153
REMARK   67  A    between atoms: _153  and  _154
REMARK   68  A    between atoms: _157  and  _159
REMARK   69  A    between atoms: _159  and  _160
REMARK   70  A    between atoms: _159  and  _162
REMARK   71  A    between atoms: _162  and  _163
REMARK   72  A    between atoms: _166  and  _168
REMARK   73  A    between atoms: _168  and  _169
REMARK   74  A    between atoms: _168  and  _171
REMARK   75  A    between atoms: _171  and  _172
REMARK   76  A    between atoms: _175  and  _177
REMARK   77  A    between atoms: _177  and  _178
REMARK   78  A    between atoms: _177  and  _180
REMARK   79  A    between atoms: _180  and  _181
REMARK   80  A    between atoms: _181  and  _182
REMARK   81  A    between atoms: _182  and  _183
REMARK   82  A    between atoms: _183  and  _184
REMARK   83  A    between atoms: _188  and  _190
REMARK   84  A    between atoms: _190  and  _191
REMARK   85  A    between atoms: _190  and  _193
REMARK   86  A    between atoms: _196  and  _198
REMARK   87  A    between atoms: _198  and  _199
REMARK   88  A    between atoms: _198  and  _201
REMARK   89  A    between atoms: _201  and  _202
REMARK   90  A    between atoms: _205  and  _207
REMARK   91  A    between atoms: _207  and  _208
REMARK   92  A    between atoms: _207  and  _210
REMARK   93  A    between atoms: _210  and  _211
REMARK   94  A    between atoms: _211  and  _212
REMARK   95  A    between atoms: _217  and  _219
REMARK   96  A    between atoms: _219  and  _220
REMARK   97  A    between atoms: _219  and  _222
REMARK   98  A    between atoms: _222  and  _223
REMARK   99  A    between atoms: _226  and  _228
REMARK  100  A    between atoms: _228  and  _229
REMARK  101  A    between atoms: _228  and  _231
REMARK  102  A    between atoms: _231  and  _232
REMARK  103  A    between atoms: _232  and  _233
REMARK  104  A    between atoms: _236  and  _238
REMARK  105  A    between atoms: _238  and  _239
REMARK  106  A    between atoms: _238  and  _241
REMARK  107  A    between atoms: _244  and  _246
REMARK  108  A    between atoms: _246  and  _247
REMARK  109  A    between atoms: _246  and  _249
REMARK  110  A    between atoms: _249  and  _250
REMARK  111  A    between atoms: _250  and  _251
REMARK  112  A    between atoms: _251  and  _252
REMARK  113  A    between atoms: _252  and  _253
REMARK  114  A    between atoms: _257  and  _259
REMARK  115  A    between atoms: _259  and  _260
REMARK  116  A    between atoms: _259  and  _262
REMARK  117  A    between atoms: _262  and  _263
REMARK  118  A    between atoms: _266  and  _268
REMARK  119  A    between atoms: _268  and  _269
REMARK  120  A    between atoms: _268  and  _271
REMARK  121  A    between atoms: _271  and  _272
REMARK  122  A    between atoms: _272  and  _273
REMARK  123  A    between atoms: _276  and  _278
REMARK  124  A    between atoms: _278  and  _279
REMARK  125  A    between atoms: _278  and  _281
REMARK  126  A    between atoms: _281  and  _282
REMARK  127  A    between atoms: _282  and  _283
REMARK  128  A    between atoms: _285  and  _287
REMARK  129  A    between atoms: _287  and  _288
REMARK  130  A    between atoms: _287  and  _290
REMARK  131  A    between atoms: _293  and  _295
REMARK  132  A    between atoms: _295  and  _296
REMARK  133  A    between atoms: _295  and  _298
REMARK  134  A    between atoms: _298  and  _299
REMARK  135  A    between atoms: _299  and  _300
REMARK  136  A    between atoms: _302  and  _304
REMARK  137  A    between atoms: _304  and  _305
REMARK  138  A    between atoms: _304  and  _307
REMARK  139  A    between atoms: _307  and  _308
REMARK  140  A    between atoms: _308  and  _309
REMARK  141  A    between atoms: _312  and  _314
REMARK  142  A    between atoms: _314  and  _315
REMARK  143  A    between atoms: _314  and  _317
REMARK  144  A    between atoms: _317  and  _318
REMARK  145  A    between atoms: _323  and  _324
REMARK  146  A    between atoms: _326  and  _328
REMARK  147  A    between atoms: _328  and  _329
REMARK  148  A    between atoms: _328  and  _331
REMARK  149  A    between atoms: _335  and  _336
REMARK  150  A    between atoms: _341  and  _343
REMARK  151  A    between atoms: _343  and  _344
REMARK  152  A    between atoms: _346  and  _348
REMARK  153  A    between atoms: _348  and  _349
REMARK  154  A    between atoms: _351  and  _353
REMARK  155  A    between atoms: _353  and  _354
REMARK  156  A    between atoms: _353  and  _356
REMARK  157  A    between atoms: _356  and  _357
REMARK  158  A    between atoms: _357  and  _358
REMARK  159  A    between atoms: _361  and  _363
REMARK  160  A    between atoms: _363  and  _364
REMARK  161  A    between atoms: _363  and  _366
REMARK  162  A    between atoms: _366  and  _367
REMARK  163  A    between atoms: _367  and  _368
REMARK  164  A    between atoms: _370  and  _372
REMARK  165  A    between atoms: _372  and  _373
REMARK  166  A    between atoms: _372  and  _375
REMARK  167  A    between atoms: _375  and  _376
REMARK  168  A    between atoms: _382  and  _384
REMARK  169  A    between atoms: _384  and  _385
REMARK  170  A    between atoms: _384  and  _387
REMARK  171  A    between atoms: _387  and  _388
REMARK  172  A    between atoms: _390  and  _392
REMARK  173  A    between atoms: _392  and  _393
REMARK  174  A    between atoms: _392  and  _395
REMARK  175  A    between atoms: _395  and  _396
REMARK  176  A    between atoms: _401  and  _402
REMARK  177  A    between atoms: _404  and  _406
REMARK  178  A    between atoms: _406  and  _407
REMARK  179  A    between atoms: _406  and  _409
REMARK  180  A    between atoms: _409  and  _410
REMARK  181  A    between atoms: _410  and  _411
REMARK  182  A    between atoms: _411  and  _412
REMARK  183  A    between atoms: _421  and  _423
REMARK  184  A    between atoms: _423  and  _424
REMARK  185  A    between atoms: _423  and  _426
REMARK  186  A    between atoms: _426  and  _427
REMARK  187  A    between atoms: _430  and  _432
REMARK  188  A    between atoms: _432  and  _433
REMARK  189  A    between atoms: _432  and  _435
REMARK  190  A    between atoms: _435  and  _436
REMARK  191  A    between atoms: _439  and  _441
REMARK  192  A    between atoms: _441  and  _442
REMARK  193  A    between atoms: _441  and  _444
REMARK  194  A    between atoms: _444  and  _445
REMARK  195  A    between atoms: _445  and  _446
REMARK  196  A    between atoms: _446  and  _447
REMARK  197  A    between atoms: _447  and  _448
REMARK  198  A    between atoms: _453  and  _454
REMARK  199  A    between atoms: _459  and  _461
REMARK  200  A    between atoms: _461  and  _462
REMARK  201  A    between atoms: _461  and  _464
REMARK  202  A    between atoms: _464  and  _465
REMARK  203  A    between atoms: _465  and  _466
REMARK  204  A    between atoms: _469  and  _471
REMARK  205  A    between atoms: _471  and  _472
REMARK  206  A    between atoms: _471  and  _474
REMARK  207  A    between atoms: _474  and  _475
REMARK  208  A    between atoms: _480  and  _482
REMARK  209  A    between atoms: _482  and  _483
REMARK  210  A    between atoms: _482  and  _485
REMARK  211  A    between atoms: _485  and  _486
REMARK  212  A    between atoms: _489  and  _491
REMARK  213  A    between atoms: _491  and  _492
REMARK  214  A    between atoms: _491  and  _494
REMARK  215  A    between atoms: _494  and  _495
REMARK  216  A    between atoms: _498  and  _500
REMARK  217  A    between atoms: _500  and  _501
REMARK  218  A    between atoms: _500  and  _503
REMARK  219  A    between atoms: _503  and  _504
REMARK  220  A    between atoms: _507  and  _509
REMARK  221  A    between atoms: _509  and  _510
REMARK  222  A    between atoms: _509  and  _512
REMARK  223  A    between atoms: _512  and  _513
REMARK  224  A    between atoms: _513  and  _514
REMARK  225  A    between atoms: _519  and  _521
REMARK  226  A    between atoms: _521  and  _522
REMARK  227  A    between atoms: _521  and  _524
REMARK  228  A    between atoms: _527  and  _529
REMARK  229  A    between atoms: _529  and  _530
REMARK  230  A    between atoms: _529  and  _532
REMARK  231  A    between atoms: _532  and  _533
REMARK  232  A    between atoms: _536  and  _538
REMARK  233  A    between atoms: _538  and  _539
REMARK  234  A    between atoms: _538  and  _541
REMARK  235  A    between atoms: _541  and  _542
REMARK  236  A    between atoms: _545  and  _547
REMARK  237  A    between atoms: _547  and  _548
REMARK  238  A    between atoms: _547  and  _550
REMARK  239  A    between atoms: _550  and  _551
REMARK  240  A    between atoms: _557  and  _559
REMARK  241  A    between atoms: _559  and  _560
REMARK  242  A    between atoms: _562  and  _564
REMARK  243  A    between atoms: _564  and  _565
REMARK  244  A    between atoms: _564  and  _567
REMARK  245  A    between atoms: _567  and  _568
REMARK  246  A    between atoms: _574  and  _576
REMARK  247  A    between atoms: _576  and  _577
REMARK  248  A    between atoms: _576  and  _579
REMARK  249  A    between atoms: _581  and  _583
REMARK  250  A    between atoms: _583  and  _584
REMARK  251  A    between atoms: _586  and  _588
REMARK  252  A    between atoms: _588  and  _589
REMARK  253  A    between atoms: _588  and  _591
REMARK  254  A    between atoms: _591  and  _592
REMARK  255  A    between atoms: _596  and  _597
REMARK  256  A    between atoms: _602  and  _604
REMARK  257  A    between atoms: _604  and  _605
REMARK  258  A    between atoms: _604  and  _607
REMARK  259  A    between atoms: _607  and  _608
REMARK  260  A    between atoms: _613  and  _614
REMARK  261  A    between atoms: _616  and  _618
REMARK  262  A    between atoms: _618  and  _619
REMARK  263  A    between atoms: _618  and  _621
REMARK  264  A    between atoms: _621  and  _622
REMARK  265  A    between atoms: _625  and  _627
REMARK  266  A    between atoms: _627  and  _628
REMARK  267  A    between atoms: _627  and  _630
REMARK  268  A    between atoms: _630  and  _631
REMARK  269  A    between atoms: _636  and  _638
REMARK  270  A    between atoms: _638  and  _639
REMARK  271  A    between atoms: _638  and  _641
REMARK  272  A    between atoms: _641  and  _642
REMARK  273  A    between atoms: _648  and  _650
REMARK  274  A    between atoms: _650  and  _651
REMARK  275  A    between atoms: _650  and  _653
REMARK  276  A    between atoms: _653  and  _654
REMARK  277  A    between atoms: _657  and  _659
REMARK  278  A    between atoms: _659  and  _660
REMARK  279  A    between atoms: _659  and  _662
REMARK  280  A    between atoms: _662  and  _663
REMARK  281  A    between atoms: _668  and  _669
REMARK  282  A    between atoms: _671  and  _673
REMARK  283  A    between atoms: _673  and  _674
REMARK  284  A    between atoms: _673  and  _676
REMARK  285  A    between atoms: _676  and  _677
REMARK  286  A    between atoms: _677  and  _678
REMARK                            x       y       z     vdW  Elec       q    Type
REMARK                         _______ _______ _______ _____ _____    ______ ____
ROOT
ATOM      1  O   HOH     1      34.065  29.667  13.514  0.00  0.00    +0.000 OA
ENDROOT
TORSDOF 0
REMARK  Name = ../refined-set-2016/3bwj/3bwj_pocket.pdb
REMARK  286 active torsions:
REMARK  status: ('A' for Active; 'I' for Inactive)
REMARK    1  A    between atoms: _1  and  _3
REMARK    2  A    between atoms: _3  and  _4
REMARK    3  A    between atoms: _3  and  _6
REMARK    4  A    between atoms: _6  and  _7
REMARK    5  A    between atoms: _10  and  _12
REMARK    6  A    between atoms: _12  and  _13
REMARK    7  A    between atoms: _12  and  _15
REMARK    8  A    between atoms: _15  and  _16
REMARK    9  A    between atoms: _19  and  _21
REMARK   10  A    between atoms: _21  and  _22
REMARK   11  A    between atoms: _24  and  _26
REMARK   12  A    between atoms: _26  and  _27
REMARK   13  A    between atoms: _26  and  _29
REMARK   14  A    between atoms: _29  and  _30
REMARK   15  A    between atoms: _33  and  _35
REMARK   16  A    between atoms: _35  and  _36
REMARK   17  A    between atoms: _38  and  _40
REMARK   18  A    between atoms: _40  and  _41
REMARK   19  A    between atoms: _40  and  _43
REMARK   20  A    between atoms: _43  and  _44
REMARK   21  A    between atoms: _46  and  _48
REMARK   22  A    between atoms: _48  and  _49
REMARK   23  A    between atoms: _48  and  _51
REMARK   24  A    between atoms: _51  and  _52
REMARK   25  A    between atoms: _58  and  _60
REMARK   26  A    between atoms: _60  and  _61
REMARK   27  A    between atoms: _63  and  _65
REMARK   28  A    between atoms: _65  and  _66
REMARK   29  A    between atoms: _65  and  _68
REMARK   30  A    between atoms: _68  and  _69
REMARK   31  A    between atoms: _69  and  _70
REMARK   32  A    between atoms: _70  and  _71
REMARK   33  A    between atoms: _80  and  _82
REMARK   34  A    between atoms: _82  and  _83
REMARK   35  A    between atoms: _82  and  _85
REMARK   36  A    between atoms: _88  and  _90
REMARK   37  A    between atoms: _90  and  _91
REMARK   38  A    between atoms: _90  and  _93
REMARK   39  A    between atoms: _93  and  _94
REMARK   40  A    between atoms: _94  and  _95
REMARK   41  A    between atoms: _97  and  _99
REMARK   42  A    between atoms: _99  and  _100
REMARK   43  A    between atoms: _99  and  _102
REMARK   44  A    between atoms: _102  and  _103
REMARK   45  A    between atoms: _106  and  _108
REMARK   46  A    between atoms: _108  and  _109
REMARK   47  A    between atoms: _108  and  _111
REMARK   48  A    between atoms: _111  and  _112
REMARK   49  A    between atoms: _117  and  _118
REMARK   50  A    between atoms: _120  and  _122
REMARK   51  A    between atoms: _122  and  _123
REMARK   52  A    between atoms: _126  and  _128
REMARK   53  A    between atoms: _128  and  _129
REMARK   54  A    between atoms: _128  and  _131
REMARK   55  A    between atoms: _131  and  _132
REMARK   56  A    between atoms: _132  and  _133
REMARK   57  A    between atoms: _135  and  _137
REMARK   58  A    between atoms: _137  and  _138
REMARK   59  A    between atoms: _137  and  _140
REMARK   60  A    between atoms: _140  and  _141
REMARK   61  A    between atoms: _141  and  _142
REMARK   62  A    between atoms: _142  and  _143
REMARK   63  A    between atoms: _143  and  _144
REMARK   64  A    between atoms: _148  and  _150
REMARK   65  A    between atoms: _150  and  _151
REMARK   66  A    between atoms: _150  and  _153
REMARK   67  A    between atoms: _153  and  _154
REMARK   68  A    between atoms: _157  and  _159
REMARK   69  A    between atoms: _159  and  _160
REMARK   70  A    between atoms: _159  and  _162
REMARK   71  A    between atoms: _162  and  _163
REMARK   72  A    between atoms: _166  and  _168
REMARK   73  A    between atoms: _168  and  _169
REMARK   74  A    between atoms: _168  and  _171
REMARK   75  A    between atoms: _171  and  _172
REMARK   76  A    between atoms: _175  and  _177
REMARK   77  A    between atoms: _177  and  _178
REMARK   78  A    between atoms: _177  and  _180
REMARK   79  A    between atoms: _180  and  _181
REMARK   80  A    between atoms: _181  and  _182
REMARK   81  A    between atoms: _182  and  _183
REMARK   82  A    between atoms: _183  and  _184
REMARK   83  A    between atoms: _188  and  _190
REMARK   84  A    between atoms: _190  and  _191
REMARK   85  A    between atoms: _190  and  _193
REMARK   86  A    between atoms: _196  and  _198
REMARK   87  A    between atoms: _198  and  _199
REMARK   88  A    between atoms: _198  and  _201
REMARK   89  A    between atoms: _201  and  _202
REMARK   90  A    between atoms: _205  and  _207
REMARK   91  A    between atoms: _207  and  _208
REMARK   92  A    between atoms: _207  and  _210
REMARK   93  A    between atoms: _210  and  _211
REMARK   94  A    between atoms: _211  and  _212
REMARK   95  A    between atoms: _217  and  _219
REMARK   96  A    between atoms: _219  and  _220
REMARK   97  A    between atoms: _219  and  _222
REMARK   98  A    between atoms: _222  and  _223
REMARK   99  A    between atoms: _226  and  _228
REMARK  100  A    between atoms: _228  and  _229
REMARK  101  A    between atoms: _228  and  _231
REMARK  102  A    between atoms: _231  and  _232
REMARK  103  A    between atoms: _232  and  _233
REMARK  104  A    between atoms: _236  and  _238
REMARK  105  A    between atoms: _238  and  _239
REMARK  106  A    between atoms: _238  and  _241
REMARK  107  A    between atoms: _244  and  _246
REMARK  108  A    between atoms: _246  and  _247
REMARK  109  A    between atoms: _246  and  _249
REMARK  110  A    between atoms: _249  and  _250
REMARK  111  A    between atoms: _250  and  _251
REMARK  112  A    between atoms: _251  and  _252
REMARK  113  A    between atoms: _252  and  _253
REMARK  114  A    between atoms: _257  and  _259
REMARK  115  A    between atoms: _259  and  _260
REMARK  116  A    between atoms: _259  and  _262
REMARK  117  A    between atoms: _262  and  _263
REMARK  118  A    between atoms: _266  and  _268
REMARK  119  A    between atoms: _268  and  _269
REMARK  120  A    between atoms: _268  and  _271
REMARK  121  A    between atoms: _271  and  _272
REMARK  122  A    between atoms: _272  and  _273
REMARK  123  A    between atoms: _276  and  _278
REMARK  124  A    between atoms: _278  and  _279
REMARK  125  A    between atoms: _278  and  _281
REMARK  126  A    between atoms: _281  and  _282
REMARK  127  A    between atoms: _282  and  _283
REMARK  128  A    between atoms: _285  and  _287
REMARK  129  A    between atoms: _287  and  _288
REMARK  130  A    between atoms: _287  and  _290
REMARK  131  A    between atoms: _293  and  _295
REMARK  132  A    between atoms: _295  and  _296
REMARK  133  A    between atoms: _295  and  _298
REMARK  134  A    between atoms: _298  and  _299
REMARK  135  A    between atoms: _299  and  _300
REMARK  136  A    between atoms: _302  and  _304
REMARK  137  A    between atoms: _304  and  _305
REMARK  138  A    between atoms: _304  and  _307
REMARK  139  A    between atoms: _307  and  _308
REMARK  140  A    between atoms: _308  and  _309
REMARK  141  A    between atoms: _312  and  _314
REMARK  142  A    between atoms: _314  and  _315
REMARK  143  A    between atoms: _314  and  _317
REMARK  144  A    between atoms: _317  and  _318
REMARK  145  A    between atoms: _323  and  _324
REMARK  146  A    between atoms: _326  and  _328
REMARK  147  A    between atoms: _328  and  _329
REMARK  148  A    between atoms: _328  and  _331
REMARK  149  A    between atoms: _335  and  _336
REMARK  150  A    between atoms: _341  and  _343
REMARK  151  A    between atoms: _343  and  _344
REMARK  152  A    between atoms: _346  and  _348
REMARK  153  A    between atoms: _348  and  _349
REMARK  154  A    between atoms: _351  and  _353
REMARK  155  A    between atoms: _353  and  _354
REMARK  156  A    between atoms: _353  and  _356
REMARK  157  A    between atoms: _356  and  _357
REMARK  158  A    between atoms: _357  and  _358
REMARK  159  A    between atoms: _361  and  _363
REMARK  160  A    between atoms: _363  and  _364
REMARK  161  A    between atoms: _363  and  _366
REMARK  162  A    between atoms: _366  and  _367
REMARK  163  A    between atoms: _367  and  _368
REMARK  164  A    between atoms: _370  and  _372
REMARK  165  A    between atoms: _372  and  _373
REMARK  166  A    between atoms: _372  and  _375
REMARK  167  A    between atoms: _375  and  _376
REMARK  168  A    between atoms: _382  and  _384
REMARK  169  A    between atoms: _384  and  _385
REMARK  170  A    between atoms: _384  and  _387
REMARK  171  A    between atoms: _387  and  _388
REMARK  172  A    between atoms: _390  and  _392
REMARK  173  A    between atoms: _392  and  _393
REMARK  174  A    between atoms: _392  and  _395
REMARK  175  A    between atoms: _395  and  _396
REMARK  176  A    between atoms: _401  and  _402
REMARK  177  A    between atoms: _404  and  _406
REMARK  178  A    between atoms: _406  and  _407
REMARK  179  A    between atoms: _406  and  _409
REMARK  180  A    between atoms: _409  and  _410
REMARK  181  A    between atoms: _410  and  _411
REMARK  182  A    between atoms: _411  and  _412
REMARK  183  A    between atoms: _421  and  _423
REMARK  184  A    between atoms: _423  and  _424
REMARK  185  A    between atoms: _423  and  _426
REMARK  186  A    between atoms: _426  and  _427
REMARK  187  A    between atoms: _430  and  _432
REMARK  188  A    between atoms: _432  and  _433
REMARK  189  A    between atoms: _432  and  _435
REMARK  190  A    between atoms: _435  and  _436
REMARK  191  A    between atoms: _439  and  _441
REMARK  192  A    between atoms: _441  and  _442
REMARK  193  A    between atoms: _441  and  _444
REMARK  194  A    between atoms: _444  and  _445
REMARK  195  A    between atoms: _445  and  _446
REMARK  196  A    between atoms: _446  and  _447
REMARK  197  A    between atoms: _447  and  _448
REMARK  198  A    between atoms: _453  and  _454
REMARK  199  A    between atoms: _459  and  _461
REMARK  200  A    between atoms: _461  and  _462
REMARK  201  A    between atoms: _461  and  _464
REMARK  202  A    between atoms: _464  and  _465
REMARK  203  A    between atoms: _465  and  _466
REMARK  204  A    between atoms: _469  and  _471
REMARK  205  A    between atoms: _471  and  _472
REMARK  206  A    between atoms: _471  and  _474
REMARK  207  A    between atoms: _474  and  _475
REMARK  208  A    between atoms: _480  and  _482
REMARK  209  A    between atoms: _482  and  _483
REMARK  210  A    between atoms: _482  and  _485
REMARK  211  A    between atoms: _485  and  _486
REMARK  212  A    between atoms: _489  and  _491
REMARK  213  A    between atoms: _491  and  _492
REMARK  214  A    between atoms: _491  and  _494
REMARK  215  A    between atoms: _494  and  _495
REMARK  216  A    between atoms: _498  and  _500
REMARK  217  A    between atoms: _500  and  _501
REMARK  218  A    between atoms: _500  and  _503
REMARK  219  A    between atoms: _503  and  _504
REMARK  220  A    between atoms: _507  and  _509
REMARK  221  A    between atoms: _509  and  _510
REMARK  222  A    between atoms: _509  and  _512
REMARK  223  A    between atoms: _512  and  _513
REMARK  224  A    between atoms: _513  and  _514
REMARK  225  A    between atoms: _519  and  _521
REMARK  226  A    between atoms: _521  and  _522
REMARK  227  A    between atoms: _521  and  _524
REMARK  228  A    between atoms: _527  and  _529
REMARK  229  A    between atoms: _529  and  _530
REMARK  230  A    between atoms: _529  and  _532
REMARK  231  A    between atoms: _532  and  _533
REMARK  232  A    between atoms: _536  and  _538
REMARK  233  A    between atoms: _538  and  _539
REMARK  234  A    between atoms: _538  and  _541
REMARK  235  A    between atoms: _541  and  _542
REMARK  236  A    between atoms: _545  and  _547
REMARK  237  A    between atoms: _547  and  _548
REMARK  238  A    between atoms: _547  and  _550
REMARK  239  A    between atoms: _550  and  _551
REMARK  240  A    between atoms: _557  and  _559
REMARK  241  A    between atoms: _559  and  _560
REMARK  242  A    between atoms: _562  and  _564
REMARK  243  A    between atoms: _564  and  _565
REMARK  244  A    between atoms: _564  and  _567
REMARK  245  A    between atoms: _567  and  _568
REMARK  246  A    between atoms: _574  and  _576
REMARK  247  A    between atoms: _576  and  _577
REMARK  248  A    between atoms: _576  and  _579
REMARK  249  A    between atoms: _581  and  _583
REMARK  250  A    between atoms: _583  and  _584
REMARK  251  A    between atoms: _586  and  _588
REMARK  252  A    between atoms: _588  and  _589
REMARK  253  A    between atoms: _588  and  _591
REMARK  254  A    between atoms: _591  and  _592
REMARK  255  A    between atoms: _596  and  _597
REMARK  256  A    between atoms: _602  and  _604
REMARK  257  A    between atoms: _604  and  _605
REMARK  258  A    between atoms: _604  and  _607
REMARK  259  A    between atoms: _607  and  _608
REMARK  260  A    between atoms: _613  and  _614
REMARK  261  A    between atoms: _616  and  _618
REMARK  262  A    between atoms: _618  and  _619
REMARK  263  A    between atoms: _618  and  _621
REMARK  264  A    between atoms: _621  and  _622
REMARK  265  A    between atoms: _625  and  _627
REMARK  266  A    between atoms: _627  and  _628
REMARK  267  A    between atoms: _627  and  _630
REMARK  268  A    between atoms: _630  and  _631
REMARK  269  A    between atoms: _636  and  _638
REMARK  270  A    between atoms: _638  and  _639
REMARK  271  A    between atoms: _638  and  _641
REMARK  272  A    between atoms: _641  and  _642
REMARK  273  A    between atoms: _648  and  _650
REMARK  274  A    between atoms: _650  and  _651
REMARK  275  A    between atoms: _650  and  _653
REMARK  276  A    between atoms: _653  and  _654
REMARK  277  A    between atoms: _657  and  _659
REMARK  278  A    between atoms: _659  and  _660
REMARK  279  A    between atoms: _659  and  _662
REMARK  280  A    between atoms: _662  and  _663
REMARK  281  A    between atoms: _668  and  _669
REMARK  282  A    between atoms: _671  and  _673
REMARK  283  A    between atoms: _673  and  _674
REMARK  284  A    between atoms: _673  and  _676
REMARK  285  A    between atoms: _676  and  _677
REMARK  286  A    between atoms: _677  and  _678
REMARK                            x       y       z     vdW  Elec       q    Type
REMARK                         _______ _______ _______ _____ _____    ______ ____
ROOT
ATOM      1  O   HOH     1      34.571  13.617  10.201  0.00  0.00    +0.000 OA
ENDROOT
TORSDOF 0
REMARK  Name = ../refined-set-2016/3bwj/3bwj_pocket.pdb
REMARK  286 active torsions:
REMARK  status: ('A' for Active; 'I' for Inactive)
REMARK    1  A    between atoms: _1  and  _3
REMARK    2  A    between atoms: _3  and  _4
REMARK    3  A    between atoms: _3  and  _6
REMARK    4  A    between atoms: _6  and  _7
REMARK    5  A    between atoms: _10  and  _12
REMARK    6  A    between atoms: _12  and  _13
REMARK    7  A    between atoms: _12  and  _15
REMARK    8  A    between atoms: _15  and  _16
REMARK    9  A    between atoms: _19  and  _21
REMARK   10  A    between atoms: _21  and  _22
REMARK   11  A    between atoms: _24  and  _26
REMARK   12  A    between atoms: _26  and  _27
REMARK   13  A    between atoms: _26  and  _29
REMARK   14  A    between atoms: _29  and  _30
REMARK   15  A    between atoms: _33  and  _35
REMARK   16  A    between atoms: _35  and  _36
REMARK   17  A    between atoms: _38  and  _40
REMARK   18  A    between atoms: _40  and  _41
REMARK   19  A    between atoms: _40  and  _43
REMARK   20  A    between atoms: _43  and  _44
REMARK   21  A    between atoms: _46  and  _48
REMARK   22  A    between atoms: _48  and  _49
REMARK   23  A    between atoms: _48  and  _51
REMARK   24  A    between atoms: _51  and  _52
REMARK   25  A    between atoms: _58  and  _60
REMARK   26  A    between atoms: _60  and  _61
REMARK   27  A    between atoms: _63  and  _65
REMARK   28  A    between atoms: _65  and  _66
REMARK   29  A    between atoms: _65  and  _68
REMARK   30  A    between atoms: _68  and  _69
REMARK   31  A    between atoms: _69  and  _70
REMARK   32  A    between atoms: _70  and  _71
REMARK   33  A    between atoms: _80  and  _82
REMARK   34  A    between atoms: _82  and  _83
REMARK   35  A    between atoms: _82  and  _85
REMARK   36  A    between atoms: _88  and  _90
REMARK   37  A    between atoms: _90  and  _91
REMARK   38  A    between atoms: _90  and  _93
REMARK   39  A    between atoms: _93  and  _94
REMARK   40  A    between atoms: _94  and  _95
REMARK   41  A    between atoms: _97  and  _99
REMARK   42  A    between atoms: _99  and  _100
REMARK   43  A    between atoms: _99  and  _102
REMARK   44  A    between atoms: _102  and  _103
REMARK   45  A    between atoms: _106  and  _108
REMARK   46  A    between atoms: _108  and  _109
REMARK   47  A    between atoms: _108  and  _111
REMARK   48  A    between atoms: _111  and  _112
REMARK   49  A    between atoms: _117  and  _118
REMARK   50  A    between atoms: _120  and  _122
REMARK   51  A    between atoms: _122  and  _123
REMARK   52  A    between atoms: _126  and  _128
REMARK   53  A    between atoms: _128  and  _129
REMARK   54  A    between atoms: _128  and  _131
REMARK   55  A    between atoms: _131  and  _132
REMARK   56  A    between atoms: _132  and  _133
REMARK   57  A    between atoms: _135  and  _137
REMARK   58  A    between atoms: _137  and  _138
REMARK   59  A    between atoms: _137  and  _140
REMARK   60  A    between atoms: _140  and  _141
REMARK   61  A    between atoms: _141  and  _142
REMARK   62  A    between atoms: _142  and  _143
REMARK   63  A    between atoms: _143  and  _144
REMARK   64  A    between atoms: _148  and  _150
REMARK   65  A    between atoms: _150  and  _151
REMARK   66  A    between atoms: _150  and  _153
REMARK   67  A    between atoms: _153  and  _154
REMARK   68  A    between atoms: _157  and  _159
REMARK   69  A    between atoms: _159  and  _160
REMARK   70  A    between atoms: _159  and  _162
REMARK   71  A    between atoms: _162  and  _163
REMARK   72  A    between atoms: _166  and  _168
REMARK   73  A    between atoms: _168  and  _169
REMARK   74  A    between atoms: _168  and  _171
REMARK   75  A    between atoms: _171  and  _172
REMARK   76  A    between atoms: _175  and  _177
REMARK   77  A    between atoms: _177  and  _178
REMARK   78  A    between atoms: _177  and  _180
REMARK   79  A    between atoms: _180  and  _181
REMARK   80  A    between atoms: _181  and  _182
REMARK   81  A    between atoms: _182  and  _183
REMARK   82  A    between atoms: _183  and  _184
REMARK   83  A    between atoms: _188  and  _190
REMARK   84  A    between atoms: _190  and  _191
REMARK   85  A    between atoms: _190  and  _193
REMARK   86  A    between atoms: _196  and  _198
REMARK   87  A    between atoms: _198  and  _199
REMARK   88  A    between atoms: _198  and  _201
REMARK   89  A    between atoms: _201  and  _202
REMARK   90  A    between atoms: _205  and  _207
REMARK   91  A    between atoms: _207  and  _208
REMARK   92  A    between atoms: _207  and  _210
REMARK   93  A    between atoms: _210  and  _211
REMARK   94  A    between atoms: _211  and  _212
REMARK   95  A    between atoms: _217  and  _219
REMARK   96  A    between atoms: _219  and  _220
REMARK   97  A    between atoms: _219  and  _222
REMARK   98  A    between atoms: _222  and  _223
REMARK   99  A    between atoms: _226  and  _228
REMARK  100  A    between atoms: _228  and  _229
REMARK  101  A    between atoms: _228  and  _231
REMARK  102  A    between atoms: _231  and  _232
REMARK  103  A    between atoms: _232  and  _233
REMARK  104  A    between atoms: _236  and  _238
REMARK  105  A    between atoms: _238  and  _239
REMARK  106  A    between atoms: _238  and  _241
REMARK  107  A    between atoms: _244  and  _246
REMARK  108  A    between atoms: _246  and  _247
REMARK  109  A    between atoms: _246  and  _249
REMARK  110  A    between atoms: _249  and  _250
REMARK  111  A    between atoms: _250  and  _251
REMARK  112  A    between atoms: _251  and  _252
REMARK  113  A    between atoms: _252  and  _253
REMARK  114  A    between atoms: _257  and  _259
REMARK  115  A    between atoms: _259  and  _260
REMARK  116  A    between atoms: _259  and  _262
REMARK  117  A    between atoms: _262  and  _263
REMARK  118  A    between atoms: _266  and  _268
REMARK  119  A    between atoms: _268  and  _269
REMARK  120  A    between atoms: _268  and  _271
REMARK  121  A    between atoms: _271  and  _272
REMARK  122  A    between atoms: _272  and  _273
REMARK  123  A    between atoms: _276  and  _278
REMARK  124  A    between atoms: _278  and  _279
REMARK  125  A    between atoms: _278  and  _281
REMARK  126  A    between atoms: _281  and  _282
REMARK  127  A    between atoms: _282  and  _283
REMARK  128  A    between atoms: _285  and  _287
REMARK  129  A    between atoms: _287  and  _288
REMARK  130  A    between atoms: _287  and  _290
REMARK  131  A    between atoms: _293  and  _295
REMARK  132  A    between atoms: _295  and  _296
REMARK  133  A    between atoms: _295  and  _298
REMARK  134  A    between atoms: _298  and  _299
REMARK  135  A    between atoms: _299  and  _300
REMARK  136  A    between atoms: _302  and  _304
REMARK  137  A    between atoms: _304  and  _305
REMARK  138  A    between atoms: _304  and  _307
REMARK  139  A    between atoms: _307  and  _308
REMARK  140  A    between atoms: _308  and  _309
REMARK  141  A    between atoms: _312  and  _314
REMARK  142  A    between atoms: _314  and  _315
REMARK  143  A    between atoms: _314  and  _317
REMARK  144  A    between atoms: _317  and  _318
REMARK  145  A    between atoms: _323  and  _324
REMARK  146  A    between atoms: _326  and  _328
REMARK  147  A    between atoms: _328  and  _329
REMARK  148  A    between atoms: _328  and  _331
REMARK  149  A    between atoms: _335  and  _336
REMARK  150  A    between atoms: _341  and  _343
REMARK  151  A    between atoms: _343  and  _344
REMARK  152  A    between atoms: _346  and  _348
REMARK  153  A    between atoms: _348  and  _349
REMARK  154  A    between atoms: _351  and  _353
REMARK  155  A    between atoms: _353  and  _354
REMARK  156  A    between atoms: _353  and  _356
REMARK  157  A    between atoms: _356  and  _357
REMARK  158  A    between atoms: _357  and  _358
REMARK  159  A    between atoms: _361  and  _363
REMARK  160  A    between atoms: _363  and  _364
REMARK  161  A    between atoms: _363  and  _366
REMARK  162  A    between atoms: _366  and  _367
REMARK  163  A    between atoms: _367  and  _368
REMARK  164  A    between atoms: _370  and  _372
REMARK  165  A    between atoms: _372  and  _373
REMARK  166  A    between atoms: _372  and  _375
REMARK  167  A    between atoms: _375  and  _376
REMARK  168  A    between atoms: _382  and  _384
REMARK  169  A    between atoms: _384  and  _385
REMARK  170  A    between atoms: _384  and  _387
REMARK  171  A    between atoms: _387  and  _388
REMARK  172  A    between atoms: _390  and  _392
REMARK  173  A    between atoms: _392  and  _393
REMARK  174  A    between atoms: _392  and  _395
REMARK  175  A    between atoms: _395  and  _396
REMARK  176  A    between atoms: _401  and  _402
REMARK  177  A    between atoms: _404  and  _406
REMARK  178  A    between atoms: _406  and  _407
REMARK  179  A    between atoms: _406  and  _409
REMARK  180  A    between atoms: _409  and  _410
REMARK  181  A    between atoms: _410  and  _411
REMARK  182  A    between atoms: _411  and  _412
REMARK  183  A    between atoms: _421  and  _423
REMARK  184  A    between atoms: _423  and  _424
REMARK  185  A    between atoms: _423  and  _426
REMARK  186  A    between atoms: _426  and  _427
REMARK  187  A    between atoms: _430  and  _432
REMARK  188  A    between atoms: _432  and  _433
REMARK  189  A    between atoms: _432  and  _435
REMARK  190  A    between atoms: _435  and  _436
REMARK  191  A    between atoms: _439  and  _441
REMARK  192  A    between atoms: _441  and  _442
REMARK  193  A    between atoms: _441  and  _444
REMARK  194  A    between atoms: _444  and  _445
REMARK  195  A    between atoms: _445  and  _446
REMARK  196  A    between atoms: _446  and  _447
REMARK  197  A    between atoms: _447  and  _448
REMARK  198  A    between atoms: _453  and  _454
REMARK  199  A    between atoms: _459  and  _461
REMARK  200  A    between atoms: _461  and  _462
REMARK  201  A    between atoms: _461  and  _464
REMARK  202  A    between atoms: _464  and  _465
REMARK  203  A    between atoms: _465  and  _466
REMARK  204  A    between atoms: _469  and  _471
REMARK  205  A    between atoms: _471  and  _472
REMARK  206  A    between atoms: _471  and  _474
REMARK  207  A    between atoms: _474  and  _475
REMARK  208  A    between atoms: _480  and  _482
REMARK  209  A    between atoms: _482  and  _483
REMARK  210  A    between atoms: _482  and  _485
REMARK  211  A    between atoms: _485  and  _486
REMARK  212  A    between atoms: _489  and  _491
REMARK  213  A    between atoms: _491  and  _492
REMARK  214  A    between atoms: _491  and  _494
REMARK  215  A    between atoms: _494  and  _495
REMARK  216  A    between atoms: _498  and  _500
REMARK  217  A    between atoms: _500  and  _501
REMARK  218  A    between atoms: _500  and  _503
REMARK  219  A    between atoms: _503  and  _504
REMARK  220  A    between atoms: _507  and  _509
REMARK  221  A    between atoms: _509  and  _510
REMARK  222  A    between atoms: _509  and  _512
REMARK  223  A    between atoms: _512  and  _513
REMARK  224  A    between atoms: _513  and  _514
REMARK  225  A    between atoms: _519  and  _521
REMARK  226  A    between atoms: _521  and  _522
REMARK  227  A    between atoms: _521  and  _524
REMARK  228  A    between atoms: _527  and  _529
REMARK  229  A    between atoms: _529  and  _530
REMARK  230  A    between atoms: _529  and  _532
REMARK  231  A    between atoms: _532  and  _533
REMARK  232  A    between atoms: _536  and  _538
REMARK  233  A    between atoms: _538  and  _539
REMARK  234  A    between atoms: _538  and  _541
REMARK  235  A    between atoms: _541  and  _542
REMARK  236  A    between atoms: _545  and  _547
REMARK  237  A    between atoms: _547  and  _548
REMARK  238  A    between atoms: _547  and  _550
REMARK  239  A    between atoms: _550  and  _551
REMARK  240  A    between atoms: _557  and  _559
REMARK  241  A    between atoms: _559  and  _560
REMARK  242  A    between atoms: _562  and  _564
REMARK  243  A    between atoms: _564  and  _565
REMARK  244  A    between atoms: _564  and  _567
REMARK  245  A    between atoms: _567  and  _568
REMARK  246  A    between atoms: _574  and  _576
REMARK  247  A    between atoms: _576  and  _577
REMARK  248  A    between atoms: _576  and  _579
REMARK  249  A    between atoms: _581  and  _583
REMARK  250  A    between atoms: _583  and  _584
REMARK  251  A    between atoms: _586  and  _588
REMARK  252  A    between atoms: _588  and  _589
REMARK  253  A    between atoms: _588  and  _591
REMARK  254  A    between atoms: _591  and  _592
REMARK  255  A    between atoms: _596  and  _597
REMARK  256  A    between atoms: _602  and  _604
REMARK  257  A    between atoms: _604  and  _605
REMARK  258  A    between atoms: _604  and  _607
REMARK  259  A    between atoms: _607  and  _608
REMARK  260  A    between atoms: _613  and  _614
REMARK  261  A    between atoms: _616  and  _618
REMARK  262  A    between atoms: _618  and  _619
REMARK  263  A    between atoms: _618  and  _621
REMARK  264  A    between atoms: _621  and  _622
REMARK  265  A    between atoms: _625  and  _627
REMARK  266  A    between atoms: _627  and  _628
REMARK  267  A    between atoms: _627  and  _630
REMARK  268  A    between atoms: _630  and  _631
REMARK  269  A    between atoms: _636  and  _638
REMARK  270  A    between atoms: _638  and  _639
REMARK  271  A    between atoms: _638  and  _641
REMARK  272  A    between atoms: _641  and  _642
REMARK  273  A    between atoms: _648  and  _650
REMARK  274  A    between atoms: _650  and  _651
REMARK  275  A    between atoms: _650  and  _653
REMARK  276  A    between atoms: _653  and  _654
REMARK  277  A    between atoms: _657  and  _659
REMARK  278  A    between atoms: _659  and  _660
REMARK  279  A    between atoms: _659  and  _662
REMARK  280  A    between atoms: _662  and  _663
REMARK  281  A    between atoms: _668  and  _669
REMARK  282  A    between atoms: _671  and  _673
REMARK  283  A    between atoms: _673  and  _674
REMARK  284  A    between atoms: _673  and  _676
REMARK  285  A    between atoms: _676  and  _677
REMARK  286  A    between atoms: _677  and  _678
REMARK                            x       y       z     vdW  Elec       q    Type
REMARK                         _______ _______ _______ _____ _____    ______ ____
ROOT
ATOM      1  O   HOH     1      32.216  15.961   7.953  0.00  0.00    +0.000 OA
ENDROOT
TORSDOF 0
REMARK  Name = ../refined-set-2016/3bwj/3bwj_pocket.pdb
REMARK  286 active torsions:
REMARK  status: ('A' for Active; 'I' for Inactive)
REMARK    1  A    between atoms: _1  and  _3
REMARK    2  A    between atoms: _3  and  _4
REMARK    3  A    between atoms: _3  and  _6
REMARK    4  A    between atoms: _6  and  _7
REMARK    5  A    between atoms: _10  and  _12
REMARK    6  A    between atoms: _12  and  _13
REMARK    7  A    between atoms: _12  and  _15
REMARK    8  A    between atoms: _15  and  _16
REMARK    9  A    between atoms: _19  and  _21
REMARK   10  A    between atoms: _21  and  _22
REMARK   11  A    between atoms: _24  and  _26
REMARK   12  A    between atoms: _26  and  _27
REMARK   13  A    between atoms: _26  and  _29
REMARK   14  A    between atoms: _29  and  _30
REMARK   15  A    between atoms: _33  and  _35
REMARK   16  A    between atoms: _35  and  _36
REMARK   17  A    between atoms: _38  and  _40
REMARK   18  A    between atoms: _40  and  _41
REMARK   19  A    between atoms: _40  and  _43
REMARK   20  A    between atoms: _43  and  _44
REMARK   21  A    between atoms: _46  and  _48
REMARK   22  A    between atoms: _48  and  _49
REMARK   23  A    between atoms: _48  and  _51
REMARK   24  A    between atoms: _51  and  _52
REMARK   25  A    between atoms: _58  and  _60
REMARK   26  A    between atoms: _60  and  _61
REMARK   27  A    between atoms: _63  and  _65
REMARK   28  A    between atoms: _65  and  _66
REMARK   29  A    between atoms: _65  and  _68
REMARK   30  A    between atoms: _68  and  _69
REMARK   31  A    between atoms: _69  and  _70
REMARK   32  A    between atoms: _70  and  _71
REMARK   33  A    between atoms: _80  and  _82
REMARK   34  A    between atoms: _82  and  _83
REMARK   35  A    between atoms: _82  and  _85
REMARK   36  A    between atoms: _88  and  _90
REMARK   37  A    between atoms: _90  and  _91
REMARK   38  A    between atoms: _90  and  _93
REMARK   39  A    between atoms: _93  and  _94
REMARK   40  A    between atoms: _94  and  _95
REMARK   41  A    between atoms: _97  and  _99
REMARK   42  A    between atoms: _99  and  _100
REMARK   43  A    between atoms: _99  and  _102
REMARK   44  A    between atoms: _102  and  _103
REMARK   45  A    between atoms: _106  and  _108
REMARK   46  A    between atoms: _108  and  _109
REMARK   47  A    between atoms: _108  and  _111
REMARK   48  A    between atoms: _111  and  _112
REMARK   49  A    between atoms: _117  and  _118
REMARK   50  A    between atoms: _120  and  _122
REMARK   51  A    between atoms: _122  and  _123
REMARK   52  A    between atoms: _126  and  _128
REMARK   53  A    between atoms: _128  and  _129
REMARK   54  A    between atoms: _128  and  _131
REMARK   55  A    between atoms: _131  and  _132
REMARK   56  A    between atoms: _132  and  _133
REMARK   57  A    between atoms: _135  and  _137
REMARK   58  A    between atoms: _137  and  _138
REMARK   59  A    between atoms: _137  and  _140
REMARK   60  A    between atoms: _140  and  _141
REMARK   61  A    between atoms: _141  and  _142
REMARK   62  A    between atoms: _142  and  _143
REMARK   63  A    between atoms: _143  and  _144
REMARK   64  A    between atoms: _148  and  _150
REMARK   65  A    between atoms: _150  and  _151
REMARK   66  A    between atoms: _150  and  _153
REMARK   67  A    between atoms: _153  and  _154
REMARK   68  A    between atoms: _157  and  _159
REMARK   69  A    between atoms: _159  and  _160
REMARK   70  A    between atoms: _159  and  _162
REMARK   71  A    between atoms: _162  and  _163
REMARK   72  A    between atoms: _166  and  _168
REMARK   73  A    between atoms: _168  and  _169
REMARK   74  A    between atoms: _168  and  _171
REMARK   75  A    between atoms: _171  and  _172
REMARK   76  A    between atoms: _175  and  _177
REMARK   77  A    between atoms: _177  and  _178
REMARK   78  A    between atoms: _177  and  _180
REMARK   79  A    between atoms: _180  and  _181
REMARK   80  A    between atoms: _181  and  _182
REMARK   81  A    between atoms: _182  and  _183
REMARK   82  A    between atoms: _183  and  _184
REMARK   83  A    between atoms: _188  and  _190
REMARK   84  A    between atoms: _190  and  _191
REMARK   85  A    between atoms: _190  and  _193
REMARK   86  A    between atoms: _196  and  _198
REMARK   87  A    between atoms: _198  and  _199
REMARK   88  A    between atoms: _198  and  _201
REMARK   89  A    between atoms: _201  and  _202
REMARK   90  A    between atoms: _205  and  _207
REMARK   91  A    between atoms: _207  and  _208
REMARK   92  A    between atoms: _207  and  _210
REMARK   93  A    between atoms: _210  and  _211
REMARK   94  A    between atoms: _211  and  _212
REMARK   95  A    between atoms: _217  and  _219
REMARK   96  A    between atoms: _219  and  _220
REMARK   97  A    between atoms: _219  and  _222
REMARK   98  A    between atoms: _222  and  _223
REMARK   99  A    between atoms: _226  and  _228
REMARK  100  A    between atoms: _228  and  _229
REMARK  101  A    between atoms: _228  and  _231
REMARK  102  A    between atoms: _231  and  _232
REMARK  103  A    between atoms: _232  and  _233
REMARK  104  A    between atoms: _236  and  _238
REMARK  105  A    between atoms: _238  and  _239
REMARK  106  A    between atoms: _238  and  _241
REMARK  107  A    between atoms: _244  and  _246
REMARK  108  A    between atoms: _246  and  _247
REMARK  109  A    between atoms: _246  and  _249
REMARK  110  A    between atoms: _249  and  _250
REMARK  111  A    between atoms: _250  and  _251
REMARK  112  A    between atoms: _251  and  _252
REMARK  113  A    between atoms: _252  and  _253
REMARK  114  A    between atoms: _257  and  _259
REMARK  115  A    between atoms: _259  and  _260
REMARK  116  A    between atoms: _259  and  _262
REMARK  117  A    between atoms: _262  and  _263
REMARK  118  A    between atoms: _266  and  _268
REMARK  119  A    between atoms: _268  and  _269
REMARK  120  A    between atoms: _268  and  _271
REMARK  121  A    between atoms: _271  and  _272
REMARK  122  A    between atoms: _272  and  _273
REMARK  123  A    between atoms: _276  and  _278
REMARK  124  A    between atoms: _278  and  _279
REMARK  125  A    between atoms: _278  and  _281
REMARK  126  A    between atoms: _281  and  _282
REMARK  127  A    between atoms: _282  and  _283
REMARK  128  A    between atoms: _285  and  _287
REMARK  129  A    between atoms: _287  and  _288
REMARK  130  A    between atoms: _287  and  _290
REMARK  131  A    between atoms: _293  and  _295
REMARK  132  A    between atoms: _295  and  _296
REMARK  133  A    between atoms: _295  and  _298
REMARK  134  A    between atoms: _298  and  _299
REMARK  135  A    between atoms: _299  and  _300
REMARK  136  A    between atoms: _302  and  _304
REMARK  137  A    between atoms: _304  and  _305
REMARK  138  A    between atoms: _304  and  _307
REMARK  139  A    between atoms: _307  and  _308
REMARK  140  A    between atoms: _308  and  _309
REMARK  141  A    between atoms: _312  and  _314
REMARK  142  A    between atoms: _314  and  _315
REMARK  143  A    between atoms: _314  and  _317
REMARK  144  A    between atoms: _317  and  _318
REMARK  145  A    between atoms: _323  and  _324
REMARK  146  A    between atoms: _326  and  _328
REMARK  147  A    between atoms: _328  and  _329
REMARK  148  A    between atoms: _328  and  _331
REMARK  149  A    between atoms: _335  and  _336
REMARK  150  A    between atoms: _341  and  _343
REMARK  151  A    between atoms: _343  and  _344
REMARK  152  A    between atoms: _346  and  _348
REMARK  153  A    between atoms: _348  and  _349
REMARK  154  A    between atoms: _351  and  _353
REMARK  155  A    between atoms: _353  and  _354
REMARK  156  A    between atoms: _353  and  _356
REMARK  157  A    between atoms: _356  and  _357
REMARK  158  A    between atoms: _357  and  _358
REMARK  159  A    between atoms: _361  and  _363
REMARK  160  A    between atoms: _363  and  _364
REMARK  161  A    between atoms: _363  and  _366
REMARK  162  A    between atoms: _366  and  _367
REMARK  163  A    between atoms: _367  and  _368
REMARK  164  A    between atoms: _370  and  _372
REMARK  165  A    between atoms: _372  and  _373
REMARK  166  A    between atoms: _372  and  _375
REMARK  167  A    between atoms: _375  and  _376
REMARK  168  A    between atoms: _382  and  _384
REMARK  169  A    between atoms: _384  and  _385
REMARK  170  A    between atoms: _384  and  _387
REMARK  171  A    between atoms: _387  and  _388
REMARK  172  A    between atoms: _390  and  _392
REMARK  173  A    between atoms: _392  and  _393
REMARK  174  A    between atoms: _392  and  _395
REMARK  175  A    between atoms: _395  and  _396
REMARK  176  A    between atoms: _401  and  _402
REMARK  177  A    between atoms: _404  and  _406
REMARK  178  A    between atoms: _406  and  _407
REMARK  179  A    between atoms: _406  and  _409
REMARK  180  A    between atoms: _409  and  _410
REMARK  181  A    between atoms: _410  and  _411
REMARK  182  A    between atoms: _411  and  _412
REMARK  183  A    between atoms: _421  and  _423
REMARK  184  A    between atoms: _423  and  _424
REMARK  185  A    between atoms: _423  and  _426
REMARK  186  A    between atoms: _426  and  _427
REMARK  187  A    between atoms: _430  and  _432
REMARK  188  A    between atoms: _432  and  _433
REMARK  189  A    between atoms: _432  and  _435
REMARK  190  A    between atoms: _435  and  _436
REMARK  191  A    between atoms: _439  and  _441
REMARK  192  A    between atoms: _441  and  _442
REMARK  193  A    between atoms: _441  and  _444
REMARK  194  A    between atoms: _444  and  _445
REMARK  195  A    between atoms: _445  and  _446
REMARK  196  A    between atoms: _446  and  _447
REMARK  197  A    between atoms: _447  and  _448
REMARK  198  A    between atoms: _453  and  _454
REMARK  199  A    between atoms: _459  and  _461
REMARK  200  A    between atoms: _461  and  _462
REMARK  201  A    between atoms: _461  and  _464
REMARK  202  A    between atoms: _464  and  _465
REMARK  203  A    between atoms: _465  and  _466
REMARK  204  A    between atoms: _469  and  _471
REMARK  205  A    between atoms: _471  and  _472
REMARK  206  A    between atoms: _471  and  _474
REMARK  207  A    between atoms: _474  and  _475
REMARK  208  A    between atoms: _480  and  _482
REMARK  209  A    between atoms: _482  and  _483
REMARK  210  A    between atoms: _482  and  _485
REMARK  211  A    between atoms: _485  and  _486
REMARK  212  A    between atoms: _489  and  _491
REMARK  213  A    between atoms: _491  and  _492
REMARK  214  A    between atoms: _491  and  _494
REMARK  215  A    between atoms: _494  and  _495
REMARK  216  A    between atoms: _498  and  _500
REMARK  217  A    between atoms: _500  and  _501
REMARK  218  A    between atoms: _500  and  _503
REMARK  219  A    between atoms: _503  and  _504
REMARK  220  A    between atoms: _507  and  _509
REMARK  221  A    between atoms: _509  and  _510
REMARK  222  A    between atoms: _509  and  _512
REMARK  223  A    between atoms: _512  and  _513
REMARK  224  A    between atoms: _513  and  _514
REMARK  225  A    between atoms: _519  and  _521
REMARK  226  A    between atoms: _521  and  _522
REMARK  227  A    between atoms: _521  and  _524
REMARK  228  A    between atoms: _527  and  _529
REMARK  229  A    between atoms: _529  and  _530
REMARK  230  A    between atoms: _529  and  _532
REMARK  231  A    between atoms: _532  and  _533
REMARK  232  A    between atoms: _536  and  _538
REMARK  233  A    between atoms: _538  and  _539
REMARK  234  A    between atoms: _538  and  _541
REMARK  235  A    between atoms: _541  and  _542
REMARK  236  A    between atoms: _545  and  _547
REMARK  237  A    between atoms: _547  and  _548
REMARK  238  A    between atoms: _547  and  _550
REMARK  239  A    between atoms: _550  and  _551
REMARK  240  A    between atoms: _557  and  _559
REMARK  241  A    between atoms: _559  and  _560
REMARK  242  A    between atoms: _562  and  _564
REMARK  243  A    between atoms: _564  and  _565
REMARK  244  A    between atoms: _564  and  _567
REMARK  245  A    between atoms: _567  and  _568
REMARK  246  A    between atoms: _574  and  _576
REMARK  247  A    between atoms: _576  and  _577
REMARK  248  A    between atoms: _576  and  _579
REMARK  249  A    between atoms: _581  and  _583
REMARK  250  A    between atoms: _583  and  _584
REMARK  251  A    between atoms: _586  and  _588
REMARK  252  A    between atoms: _588  and  _589
REMARK  253  A    between atoms: _588  and  _591
REMARK  254  A    between atoms: _591  and  _592
REMARK  255  A    between atoms: _596  and  _597
REMARK  256  A    between atoms: _602  and  _604
REMARK  257  A    between atoms: _604  and  _605
REMARK  258  A    between atoms: _604  and  _607
REMARK  259  A    between atoms: _607  and  _608
REMARK  260  A    between atoms: _613  and  _614
REMARK  261  A    between atoms: _616  and  _618
REMARK  262  A    between atoms: _618  and  _619
REMARK  263  A    between atoms: _618  and  _621
REMARK  264  A    between atoms: _621  and  _622
REMARK  265  A    between atoms: _625  and  _627
REMARK  266  A    between atoms: _627  and  _628
REMARK  267  A    between atoms: _627  and  _630
REMARK  268  A    between atoms: _630  and  _631
REMARK  269  A    between atoms: _636  and  _638
REMARK  270  A    between atoms: _638  and  _639
REMARK  271  A    between atoms: _638  and  _641
REMARK  272  A    between atoms: _641  and  _642
REMARK  273  A    between atoms: _648  and  _650
REMARK  274  A    between atoms: _650  and  _651
REMARK  275  A    between atoms: _650  and  _653
REMARK  276  A    between atoms: _653  and  _654
REMARK  277  A    between atoms: _657  and  _659
REMARK  278  A    between atoms: _659  and  _660
REMARK  279  A    between atoms: _659  and  _662
REMARK  280  A    between atoms: _662  and  _663
REMARK  281  A    between atoms: _668  and  _669
REMARK  282  A    between atoms: _671  and  _673
REMARK  283  A    between atoms: _673  and  _674
REMARK  284  A    between atoms: _673  and  _676
REMARK  285  A    between atoms: _676  and  _677
REMARK  286  A    between atoms: _677  and  _678
REMARK                            x       y       z     vdW  Elec       q    Type
REMARK                         _______ _______ _______ _____ _____    ______ ____
ROOT
ATOM      1  O   HOH     1      33.068  17.928   9.276  0.00  0.00    +0.000 OA
ENDROOT
TORSDOF 0
REMARK  Name = ../refined-set-2016/3bwj/3bwj_pocket.pdb
REMARK  286 active torsions:
REMARK  status: ('A' for Active; 'I' for Inactive)
REMARK    1  A    between atoms: _1  and  _3
REMARK    2  A    between atoms: _3  and  _4
REMARK    3  A    between atoms: _3  and  _6
REMARK    4  A    between atoms: _6  and  _7
REMARK    5  A    between atoms: _10  and  _12
REMARK    6  A    between atoms: _12  and  _13
REMARK    7  A    between atoms: _12  and  _15
REMARK    8  A    between atoms: _15  and  _16
REMARK    9  A    between atoms: _19  and  _21
REMARK   10  A    between atoms: _21  and  _22
REMARK   11  A    between atoms: _24  and  _26
REMARK   12  A    between atoms: _26  and  _27
REMARK   13  A    between atoms: _26  and  _29
REMARK   14  A    between atoms: _29  and  _30
REMARK   15  A    between atoms: _33  and  _35
REMARK   16  A    between atoms: _35  and  _36
REMARK   17  A    between atoms: _38  and  _40
REMARK   18  A    between atoms: _40  and  _41
REMARK   19  A    between atoms: _40  and  _43
REMARK   20  A    between atoms: _43  and  _44
REMARK   21  A    between atoms: _46  and  _48
REMARK   22  A    between atoms: _48  and  _49
REMARK   23  A    between atoms: _48  and  _51
REMARK   24  A    between atoms: _51  and  _52
REMARK   25  A    between atoms: _58  and  _60
REMARK   26  A    between atoms: _60  and  _61
REMARK   27  A    between atoms: _63  and  _65
REMARK   28  A    between atoms: _65  and  _66
REMARK   29  A    between atoms: _65  and  _68
REMARK   30  A    between atoms: _68  and  _69
REMARK   31  A    between atoms: _69  and  _70
REMARK   32  A    between atoms: _70  and  _71
REMARK   33  A    between atoms: _80  and  _82
REMARK   34  A    between atoms: _82  and  _83
REMARK   35  A    between atoms: _82  and  _85
REMARK   36  A    between atoms: _88  and  _90
REMARK   37  A    between atoms: _90  and  _91
REMARK   38  A    between atoms: _90  and  _93
REMARK   39  A    between atoms: _93  and  _94
REMARK   40  A    between atoms: _94  and  _95
REMARK   41  A    between atoms: _97  and  _99
REMARK   42  A    between atoms: _99  and  _100
REMARK   43  A    between atoms: _99  and  _102
REMARK   44  A    between atoms: _102  and  _103
REMARK   45  A    between atoms: _106  and  _108
REMARK   46  A    between atoms: _108  and  _109
REMARK   47  A    between atoms: _108  and  _111
REMARK   48  A    between atoms: _111  and  _112
REMARK   49  A    between atoms: _117  and  _118
REMARK   50  A    between atoms: _120  and  _122
REMARK   51  A    between atoms: _122  and  _123
REMARK   52  A    between atoms: _126  and  _128
REMARK   53  A    between atoms: _128  and  _129
REMARK   54  A    between atoms: _128  and  _131
REMARK   55  A    between atoms: _131  and  _132
REMARK   56  A    between atoms: _132  and  _133
REMARK   57  A    between atoms: _135  and  _137
REMARK   58  A    between atoms: _137  and  _138
REMARK   59  A    between atoms: _137  and  _140
REMARK   60  A    between atoms: _140  and  _141
REMARK   61  A    between atoms: _141  and  _142
REMARK   62  A    between atoms: _142  and  _143
REMARK   63  A    between atoms: _143  and  _144
REMARK   64  A    between atoms: _148  and  _150
REMARK   65  A    between atoms: _150  and  _151
REMARK   66  A    between atoms: _150  and  _153
REMARK   67  A    between atoms: _153  and  _154
REMARK   68  A    between atoms: _157  and  _159
REMARK   69  A    between atoms: _159  and  _160
REMARK   70  A    between atoms: _159  and  _162
REMARK   71  A    between atoms: _162  and  _163
REMARK   72  A    between atoms: _166  and  _168
REMARK   73  A    between atoms: _168  and  _169
REMARK   74  A    between atoms: _168  and  _171
REMARK   75  A    between atoms: _171  and  _172
REMARK   76  A    between atoms: _175  and  _177
REMARK   77  A    between atoms: _177  and  _178
REMARK   78  A    between atoms: _177  and  _180
REMARK   79  A    between atoms: _180  and  _181
REMARK   80  A    between atoms: _181  and  _182
REMARK   81  A    between atoms: _182  and  _183
REMARK   82  A    between atoms: _183  and  _184
REMARK   83  A    between atoms: _188  and  _190
REMARK   84  A    between atoms: _190  and  _191
REMARK   85  A    between atoms: _190  and  _193
REMARK   86  A    between atoms: _196  and  _198
REMARK   87  A    between atoms: _198  and  _199
REMARK   88  A    between atoms: _198  and  _201
REMARK   89  A    between atoms: _201  and  _202
REMARK   90  A    between atoms: _205  and  _207
REMARK   91  A    between atoms: _207  and  _208
REMARK   92  A    between atoms: _207  and  _210
REMARK   93  A    between atoms: _210  and  _211
REMARK   94  A    between atoms: _211  and  _212
REMARK   95  A    between atoms: _217  and  _219
REMARK   96  A    between atoms: _219  and  _220
REMARK   97  A    between atoms: _219  and  _222
REMARK   98  A    between atoms: _222  and  _223
REMARK   99  A    between atoms: _226  and  _228
REMARK  100  A    between atoms: _228  and  _229
REMARK  101  A    between atoms: _228  and  _231
REMARK  102  A    between atoms: _231  and  _232
REMARK  103  A    between atoms: _232  and  _233
REMARK  104  A    between atoms: _236  and  _238
REMARK  105  A    between atoms: _238  and  _239
REMARK  106  A    between atoms: _238  and  _241
REMARK  107  A    between atoms: _244  and  _246
REMARK  108  A    between atoms: _246  and  _247
REMARK  109  A    between atoms: _246  and  _249
REMARK  110  A    between atoms: _249  and  _250
REMARK  111  A    between atoms: _250  and  _251
REMARK  112  A    between atoms: _251  and  _252
REMARK  113  A    between atoms: _252  and  _253
REMARK  114  A    between atoms: _257  and  _259
REMARK  115  A    between atoms: _259  and  _260
REMARK  116  A    between atoms: _259  and  _262
REMARK  117  A    between atoms: _262  and  _263
REMARK  118  A    between atoms: _266  and  _268
REMARK  119  A    between atoms: _268  and  _269
REMARK  120  A    between atoms: _268  and  _271
REMARK  121  A    between atoms: _271  and  _272
REMARK  122  A    between atoms: _272  and  _273
REMARK  123  A    between atoms: _276  and  _278
REMARK  124  A    between atoms: _278  and  _279
REMARK  125  A    between atoms: _278  and  _281
REMARK  126  A    between atoms: _281  and  _282
REMARK  127  A    between atoms: _282  and  _283
REMARK  128  A    between atoms: _285  and  _287
REMARK  129  A    between atoms: _287  and  _288
REMARK  130  A    between atoms: _287  and  _290
REMARK  131  A    between atoms: _293  and  _295
REMARK  132  A    between atoms: _295  and  _296
REMARK  133  A    between atoms: _295  and  _298
REMARK  134  A    between atoms: _298  and  _299
REMARK  135  A    between atoms: _299  and  _300
REMARK  136  A    between atoms: _302  and  _304
REMARK  137  A    between atoms: _304  and  _305
REMARK  138  A    between atoms: _304  and  _307
REMARK  139  A    between atoms: _307  and  _308
REMARK  140  A    between atoms: _308  and  _309
REMARK  141  A    between atoms: _312  and  _314
REMARK  142  A    between atoms: _314  and  _315
REMARK  143  A    between atoms: _314  and  _317
REMARK  144  A    between atoms: _317  and  _318
REMARK  145  A    between atoms: _323  and  _324
REMARK  146  A    between atoms: _326  and  _328
REMARK  147  A    between atoms: _328  and  _329
REMARK  148  A    between atoms: _328  and  _331
REMARK  149  A    between atoms: _335  and  _336
REMARK  150  A    between atoms: _341  and  _343
REMARK  151  A    between atoms: _343  and  _344
REMARK  152  A    between atoms: _346  and  _348
REMARK  153  A    between atoms: _348  and  _349
REMARK  154  A    between atoms: _351  and  _353
REMARK  155  A    between atoms: _353  and  _354
REMARK  156  A    between atoms: _353  and  _356
REMARK  157  A    between atoms: _356  and  _357
REMARK  158  A    between atoms: _357  and  _358
REMARK  159  A    between atoms: _361  and  _363
REMARK  160  A    between atoms: _363  and  _364
REMARK  161  A    between atoms: _363  and  _366
REMARK  162  A    between atoms: _366  and  _367
REMARK  163  A    between atoms: _367  and  _368
REMARK  164  A    between atoms: _370  and  _372
REMARK  165  A    between atoms: _372  and  _373
REMARK  166  A    between atoms: _372  and  _375
REMARK  167  A    between atoms: _375  and  _376
REMARK  168  A    between atoms: _382  and  _384
REMARK  169  A    between atoms: _384  and  _385
REMARK  170  A    between atoms: _384  and  _387
REMARK  171  A    between atoms: _387  and  _388
REMARK  172  A    between atoms: _390  and  _392
REMARK  173  A    between atoms: _392  and  _393
REMARK  174  A    between atoms: _392  and  _395
REMARK  175  A    between atoms: _395  and  _396
REMARK  176  A    between atoms: _401  and  _402
REMARK  177  A    between atoms: _404  and  _406
REMARK  178  A    between atoms: _406  and  _407
REMARK  179  A    between atoms: _406  and  _409
REMARK  180  A    between atoms: _409  and  _410
REMARK  181  A    between atoms: _410  and  _411
REMARK  182  A    between atoms: _411  and  _412
REMARK  183  A    between atoms: _421  and  _423
REMARK  184  A    between atoms: _423  and  _424
REMARK  185  A    between atoms: _423  and  _426
REMARK  186  A    between atoms: _426  and  _427
REMARK  187  A    between atoms: _430  and  _432
REMARK  188  A    between atoms: _432  and  _433
REMARK  189  A    between atoms: _432  and  _435
REMARK  190  A    between atoms: _435  and  _436
REMARK  191  A    between atoms: _439  and  _441
REMARK  192  A    between atoms: _441  and  _442
REMARK  193  A    between atoms: _441  and  _444
REMARK  194  A    between atoms: _444  and  _445
REMARK  195  A    between atoms: _445  and  _446
REMARK  196  A    between atoms: _446  and  _447
REMARK  197  A    between atoms: _447  and  _448
REMARK  198  A    between atoms: _453  and  _454
REMARK  199  A    between atoms: _459  and  _461
REMARK  200  A    between atoms: _461  and  _462
REMARK  201  A    between atoms: _461  and  _464
REMARK  202  A    between atoms: _464  and  _465
REMARK  203  A    between atoms: _465  and  _466
REMARK  204  A    between atoms: _469  and  _471
REMARK  205  A    between atoms: _471  and  _472
REMARK  206  A    between atoms: _471  and  _474
REMARK  207  A    between atoms: _474  and  _475
REMARK  208  A    between atoms: _480  and  _482
REMARK  209  A    between atoms: _482  and  _483
REMARK  210  A    between atoms: _482  and  _485
REMARK  211  A    between atoms: _485  and  _486
REMARK  212  A    between atoms: _489  and  _491
REMARK  213  A    between atoms: _491  and  _492
REMARK  214  A    between atoms: _491  and  _494
REMARK  215  A    between atoms: _494  and  _495
REMARK  216  A    between atoms: _498  and  _500
REMARK  217  A    between atoms: _500  and  _501
REMARK  218  A    between atoms: _500  and  _503
REMARK  219  A    between atoms: _503  and  _504
REMARK  220  A    between atoms: _507  and  _509
REMARK  221  A    between atoms: _509  and  _510
REMARK  222  A    between atoms: _509  and  _512
REMARK  223  A    between atoms: _512  and  _513
REMARK  224  A    between atoms: _513  and  _514
REMARK  225  A    between atoms: _519  and  _521
REMARK  226  A    between atoms: _521  and  _522
REMARK  227  A    between atoms: _521  and  _524
REMARK  228  A    between atoms: _527  and  _529
REMARK  229  A    between atoms: _529  and  _530
REMARK  230  A    between atoms: _529  and  _532
REMARK  231  A    between atoms: _532  and  _533
REMARK  232  A    between atoms: _536  and  _538
REMARK  233  A    between atoms: _538  and  _539
REMARK  234  A    between atoms: _538  and  _541
REMARK  235  A    between atoms: _541  and  _542
REMARK  236  A    between atoms: _545  and  _547
REMARK  237  A    between atoms: _547  and  _548
REMARK  238  A    between atoms: _547  and  _550
REMARK  239  A    between atoms: _550  and  _551
REMARK  240  A    between atoms: _557  and  _559
REMARK  241  A    between atoms: _559  and  _560
REMARK  242  A    between atoms: _562  and  _564
REMARK  243  A    between atoms: _564  and  _565
REMARK  244  A    between atoms: _564  and  _567
REMARK  245  A    between atoms: _567  and  _568
REMARK  246  A    between atoms: _574  and  _576
REMARK  247  A    between atoms: _576  and  _577
REMARK  248  A    between atoms: _576  and  _579
REMARK  249  A    between atoms: _581  and  _583
REMARK  250  A    between atoms: _583  and  _584
REMARK  251  A    between atoms: _586  and  _588
REMARK  252  A    between atoms: _588  and  _589
REMARK  253  A    between atoms: _588  and  _591
REMARK  254  A    between atoms: _591  and  _592
REMARK  255  A    between atoms: _596  and  _597
REMARK  256  A    between atoms: _602  and  _604
REMARK  257  A    between atoms: _604  and  _605
REMARK  258  A    between atoms: _604  and  _607
REMARK  259  A    between atoms: _607  and  _608
REMARK  260  A    between atoms: _613  and  _614
REMARK  261  A    between atoms: _616  and  _618
REMARK  262  A    between atoms: _618  and  _619
REMARK  263  A    between atoms: _618  and  _621
REMARK  264  A    between atoms: _621  and  _622
REMARK  265  A    between atoms: _625  and  _627
REMARK  266  A    between atoms: _627  and  _628
REMARK  267  A    between atoms: _627  and  _630
REMARK  268  A    between atoms: _630  and  _631
REMARK  269  A    between atoms: _636  and  _638
REMARK  270  A    between atoms: _638  and  _639
REMARK  271  A    between atoms: _638  and  _641
REMARK  272  A    between atoms: _641  and  _642
REMARK  273  A    between atoms: _648  and  _650
REMARK  274  A    between atoms: _650  and  _651
REMARK  275  A    between atoms: _650  and  _653
REMARK  276  A    between atoms: _653  and  _654
REMARK  277  A    between atoms: _657  and  _659
REMARK  278  A    between atoms: _659  and  _660
REMARK  279  A    between atoms: _659  and  _662
REMARK  280  A    between atoms: _662  and  _663
REMARK  281  A    between atoms: _668  and  _669
REMARK  282  A    between atoms: _671  and  _673
REMARK  283  A    between atoms: _673  and  _674
REMARK  284  A    between atoms: _673  and  _676
REMARK  285  A    between atoms: _676  and  _677
REMARK  286  A    between atoms: _677  and  _678
REMARK                            x       y       z     vdW  Elec       q    Type
REMARK                         _______ _______ _______ _____ _____    ______ ____
ROOT
ATOM      1  O   HOH     1      41.850  17.921  10.506  0.00  0.00    +0.000 OA
ENDROOT
TORSDOF 0
REMARK  Name = ../refined-set-2016/3bwj/3bwj_pocket.pdb
REMARK  286 active torsions:
REMARK  status: ('A' for Active; 'I' for Inactive)
REMARK    1  A    between atoms: _1  and  _3
REMARK    2  A    between atoms: _3  and  _4
REMARK    3  A    between atoms: _3  and  _6
REMARK    4  A    between atoms: _6  and  _7
REMARK    5  A    between atoms: _10  and  _12
REMARK    6  A    between atoms: _12  and  _13
REMARK    7  A    between atoms: _12  and  _15
REMARK    8  A    between atoms: _15  and  _16
REMARK    9  A    between atoms: _19  and  _21
REMARK   10  A    between atoms: _21  and  _22
REMARK   11  A    between atoms: _24  and  _26
REMARK   12  A    between atoms: _26  and  _27
REMARK   13  A    between atoms: _26  and  _29
REMARK   14  A    between atoms: _29  and  _30
REMARK   15  A    between atoms: _33  and  _35
REMARK   16  A    between atoms: _35  and  _36
REMARK   17  A    between atoms: _38  and  _40
REMARK   18  A    between atoms: _40  and  _41
REMARK   19  A    between atoms: _40  and  _43
REMARK   20  A    between atoms: _43  and  _44
REMARK   21  A    between atoms: _46  and  _48
REMARK   22  A    between atoms: _48  and  _49
REMARK   23  A    between atoms: _48  and  _51
REMARK   24  A    between atoms: _51  and  _52
REMARK   25  A    between atoms: _58  and  _60
REMARK   26  A    between atoms: _60  and  _61
REMARK   27  A    between atoms: _63  and  _65
REMARK   28  A    between atoms: _65  and  _66
REMARK   29  A    between atoms: _65  and  _68
REMARK   30  A    between atoms: _68  and  _69
REMARK   31  A    between atoms: _69  and  _70
REMARK   32  A    between atoms: _70  and  _71
REMARK   33  A    between atoms: _80  and  _82
REMARK   34  A    between atoms: _82  and  _83
REMARK   35  A    between atoms: _82  and  _85
REMARK   36  A    between atoms: _88  and  _90
REMARK   37  A    between atoms: _90  and  _91
REMARK   38  A    between atoms: _90  and  _93
REMARK   39  A    between atoms: _93  and  _94
REMARK   40  A    between atoms: _94  and  _95
REMARK   41  A    between atoms: _97  and  _99
REMARK   42  A    between atoms: _99  and  _100
REMARK   43  A    between atoms: _99  and  _102
REMARK   44  A    between atoms: _102  and  _103
REMARK   45  A    between atoms: _106  and  _108
REMARK   46  A    between atoms: _108  and  _109
REMARK   47  A    between atoms: _108  and  _111
REMARK   48  A    between atoms: _111  and  _112
REMARK   49  A    between atoms: _117  and  _118
REMARK   50  A    between atoms: _120  and  _122
REMARK   51  A    between atoms: _122  and  _123
REMARK   52  A    between atoms: _126  and  _128
REMARK   53  A    between atoms: _128  and  _129
REMARK   54  A    between atoms: _128  and  _131
REMARK   55  A    between atoms: _131  and  _132
REMARK   56  A    between atoms: _132  and  _133
REMARK   57  A    between atoms: _135  and  _137
REMARK   58  A    between atoms: _137  and  _138
REMARK   59  A    between atoms: _137  and  _140
REMARK   60  A    between atoms: _140  and  _141
REMARK   61  A    between atoms: _141  and  _142
REMARK   62  A    between atoms: _142  and  _143
REMARK   63  A    between atoms: _143  and  _144
REMARK   64  A    between atoms: _148  and  _150
REMARK   65  A    between atoms: _150  and  _151
REMARK   66  A    between atoms: _150  and  _153
REMARK   67  A    between atoms: _153  and  _154
REMARK   68  A    between atoms: _157  and  _159
REMARK   69  A    between atoms: _159  and  _160
REMARK   70  A    between atoms: _159  and  _162
REMARK   71  A    between atoms: _162  and  _163
REMARK   72  A    between atoms: _166  and  _168
REMARK   73  A    between atoms: _168  and  _169
REMARK   74  A    between atoms: _168  and  _171
REMARK   75  A    between atoms: _171  and  _172
REMARK   76  A    between atoms: _175  and  _177
REMARK   77  A    between atoms: _177  and  _178
REMARK   78  A    between atoms: _177  and  _180
REMARK   79  A    between atoms: _180  and  _181
REMARK   80  A    between atoms: _181  and  _182
REMARK   81  A    between atoms: _182  and  _183
REMARK   82  A    between atoms: _183  and  _184
REMARK   83  A    between atoms: _188  and  _190
REMARK   84  A    between atoms: _190  and  _191
REMARK   85  A    between atoms: _190  and  _193
REMARK   86  A    between atoms: _196  and  _198
REMARK   87  A    between atoms: _198  and  _199
REMARK   88  A    between atoms: _198  and  _201
REMARK   89  A    between atoms: _201  and  _202
REMARK   90  A    between atoms: _205  and  _207
REMARK   91  A    between atoms: _207  and  _208
REMARK   92  A    between atoms: _207  and  _210
REMARK   93  A    between atoms: _210  and  _211
REMARK   94  A    between atoms: _211  and  _212
REMARK   95  A    between atoms: _217  and  _219
REMARK   96  A    between atoms: _219  and  _220
REMARK   97  A    between atoms: _219  and  _222
REMARK   98  A    between atoms: _222  and  _223
REMARK   99  A    between atoms: _226  and  _228
REMARK  100  A    between atoms: _228  and  _229
REMARK  101  A    between atoms: _228  and  _231
REMARK  102  A    between atoms: _231  and  _232
REMARK  103  A    between atoms: _232  and  _233
REMARK  104  A    between atoms: _236  and  _238
REMARK  105  A    between atoms: _238  and  _239
REMARK  106  A    between atoms: _238  and  _241
REMARK  107  A    between atoms: _244  and  _246
REMARK  108  A    between atoms: _246  and  _247
REMARK  109  A    between atoms: _246  and  _249
REMARK  110  A    between atoms: _249  and  _250
REMARK  111  A    between atoms: _250  and  _251
REMARK  112  A    between atoms: _251  and  _252
REMARK  113  A    between atoms: _252  and  _253
REMARK  114  A    between atoms: _257  and  _259
REMARK  115  A    between atoms: _259  and  _260
REMARK  116  A    between atoms: _259  and  _262
REMARK  117  A    between atoms: _262  and  _263
REMARK  118  A    between atoms: _266  and  _268
REMARK  119  A    between atoms: _268  and  _269
REMARK  120  A    between atoms: _268  and  _271
REMARK  121  A    between atoms: _271  and  _272
REMARK  122  A    between atoms: _272  and  _273
REMARK  123  A    between atoms: _276  and  _278
REMARK  124  A    between atoms: _278  and  _279
REMARK  125  A    between atoms: _278  and  _281
REMARK  126  A    between atoms: _281  and  _282
REMARK  127  A    between atoms: _282  and  _283
REMARK  128  A    between atoms: _285  and  _287
REMARK  129  A    between atoms: _287  and  _288
REMARK  130  A    between atoms: _287  and  _290
REMARK  131  A    between atoms: _293  and  _295
REMARK  132  A    between atoms: _295  and  _296
REMARK  133  A    between atoms: _295  and  _298
REMARK  134  A    between atoms: _298  and  _299
REMARK  135  A    between atoms: _299  and  _300
REMARK  136  A    between atoms: _302  and  _304
REMARK  137  A    between atoms: _304  and  _305
REMARK  138  A    between atoms: _304  and  _307
REMARK  139  A    between atoms: _307  and  _308
REMARK  140  A    between atoms: _308  and  _309
REMARK  141  A    between atoms: _312  and  _314
REMARK  142  A    between atoms: _314  and  _315
REMARK  143  A    between atoms: _314  and  _317
REMARK  144  A    between atoms: _317  and  _318
REMARK  145  A    between atoms: _323  and  _324
REMARK  146  A    between atoms: _326  and  _328
REMARK  147  A    between atoms: _328  and  _329
REMARK  148  A    between atoms: _328  and  _331
REMARK  149  A    between atoms: _335  and  _336
REMARK  150  A    between atoms: _341  and  _343
REMARK  151  A    between atoms: _343  and  _344
REMARK  152  A    between atoms: _346  and  _348
REMARK  153  A    between atoms: _348  and  _349
REMARK  154  A    between atoms: _351  and  _353
REMARK  155  A    between atoms: _353  and  _354
REMARK  156  A    between atoms: _353  and  _356
REMARK  157  A    between atoms: _356  and  _357
REMARK  158  A    between atoms: _357  and  _358
REMARK  159  A    between atoms: _361  and  _363
REMARK  160  A    between atoms: _363  and  _364
REMARK  161  A    between atoms: _363  and  _366
REMARK  162  A    between atoms: _366  and  _367
REMARK  163  A    between atoms: _367  and  _368
REMARK  164  A    between atoms: _370  and  _372
REMARK  165  A    between atoms: _372  and  _373
REMARK  166  A    between atoms: _372  and  _375
REMARK  167  A    between atoms: _375  and  _376
REMARK  168  A    between atoms: _382  and  _384
REMARK  169  A    between atoms: _384  and  _385
REMARK  170  A    between atoms: _384  and  _387
REMARK  171  A    between atoms: _387  and  _388
REMARK  172  A    between atoms: _390  and  _392
REMARK  173  A    between atoms: _392  and  _393
REMARK  174  A    between atoms: _392  and  _395
REMARK  175  A    between atoms: _395  and  _396
REMARK  176  A    between atoms: _401  and  _402
REMARK  177  A    between atoms: _404  and  _406
REMARK  178  A    between atoms: _406  and  _407
REMARK  179  A    between atoms: _406  and  _409
REMARK  180  A    between atoms: _409  and  _410
REMARK  181  A    between atoms: _410  and  _411
REMARK  182  A    between atoms: _411  and  _412
REMARK  183  A    between atoms: _421  and  _423
REMARK  184  A    between atoms: _423  and  _424
REMARK  185  A    between atoms: _423  and  _426
REMARK  186  A    between atoms: _426  and  _427
REMARK  187  A    between atoms: _430  and  _432
REMARK  188  A    between atoms: _432  and  _433
REMARK  189  A    between atoms: _432  and  _435
REMARK  190  A    between atoms: _435  and  _436
REMARK  191  A    between atoms: _439  and  _441
REMARK  192  A    between atoms: _441  and  _442
REMARK  193  A    between atoms: _441  and  _444
REMARK  194  A    between atoms: _444  and  _445
REMARK  195  A    between atoms: _445  and  _446
REMARK  196  A    between atoms: _446  and  _447
REMARK  197  A    between atoms: _447  and  _448
REMARK  198  A    between atoms: _453  and  _454
REMARK  199  A    between atoms: _459  and  _461
REMARK  200  A    between atoms: _461  and  _462
REMARK  201  A    between atoms: _461  and  _464
REMARK  202  A    between atoms: _464  and  _465
REMARK  203  A    between atoms: _465  and  _466
REMARK  204  A    between atoms: _469  and  _471
REMARK  205  A    between atoms: _471  and  _472
REMARK  206  A    between atoms: _471  and  _474
REMARK  207  A    between atoms: _474  and  _475
REMARK  208  A    between atoms: _480  and  _482
REMARK  209  A    between atoms: _482  and  _483
REMARK  210  A    between atoms: _482  and  _485
REMARK  211  A    between atoms: _485  and  _486
REMARK  212  A    between atoms: _489  and  _491
REMARK  213  A    between atoms: _491  and  _492
REMARK  214  A    between atoms: _491  and  _494
REMARK  215  A    between atoms: _494  and  _495
REMARK  216  A    between atoms: _498  and  _500
REMARK  217  A    between atoms: _500  and  _501
REMARK  218  A    between atoms: _500  and  _503
REMARK  219  A    between atoms: _503  and  _504
REMARK  220  A    between atoms: _507  and  _509
REMARK  221  A    between atoms: _509  and  _510
REMARK  222  A    between atoms: _509  and  _512
REMARK  223  A    between atoms: _512  and  _513
REMARK  224  A    between atoms: _513  and  _514
REMARK  225  A    between atoms: _519  and  _521
REMARK  226  A    between atoms: _521  and  _522
REMARK  227  A    between atoms: _521  and  _524
REMARK  228  A    between atoms: _527  and  _529
REMARK  229  A    between atoms: _529  and  _530
REMARK  230  A    between atoms: _529  and  _532
REMARK  231  A    between atoms: _532  and  _533
REMARK  232  A    between atoms: _536  and  _538
REMARK  233  A    between atoms: _538  and  _539
REMARK  234  A    between atoms: _538  and  _541
REMARK  235  A    between atoms: _541  and  _542
REMARK  236  A    between atoms: _545  and  _547
REMARK  237  A    between atoms: _547  and  _548
REMARK  238  A    between atoms: _547  and  _550
REMARK  239  A    between atoms: _550  and  _551
REMARK  240  A    between atoms: _557  and  _559
REMARK  241  A    between atoms: _559  and  _560
REMARK  242  A    between atoms: _562  and  _564
REMARK  243  A    between atoms: _564  and  _565
REMARK  244  A    between atoms: _564  and  _567
REMARK  245  A    between atoms: _567  and  _568
REMARK  246  A    between atoms: _574  and  _576
REMARK  247  A    between atoms: _576  and  _577
REMARK  248  A    between atoms: _576  and  _579
REMARK  249  A    between atoms: _581  and  _583
REMARK  250  A    between atoms: _583  and  _584
REMARK  251  A    between atoms: _586  and  _588
REMARK  252  A    between atoms: _588  and  _589
REMARK  253  A    between atoms: _588  and  _591
REMARK  254  A    between atoms: _591  and  _592
REMARK  255  A    between atoms: _596  and  _597
REMARK  256  A    between atoms: _602  and  _604
REMARK  257  A    between atoms: _604  and  _605
REMARK  258  A    between atoms: _604  and  _607
REMARK  259  A    between atoms: _607  and  _608
REMARK  260  A    between atoms: _613  and  _614
REMARK  261  A    between atoms: _616  and  _618
REMARK  262  A    between atoms: _618  and  _619
REMARK  263  A    between atoms: _618  and  _621
REMARK  264  A    between atoms: _621  and  _622
REMARK  265  A    between atoms: _625  and  _627
REMARK  266  A    between atoms: _627  and  _628
REMARK  267  A    between atoms: _627  and  _630
REMARK  268  A    between atoms: _630  and  _631
REMARK  269  A    between atoms: _636  and  _638
REMARK  270  A    between atoms: _638  and  _639
REMARK  271  A    between atoms: _638  and  _641
REMARK  272  A    between atoms: _641  and  _642
REMARK  273  A    between atoms: _648  and  _650
REMARK  274  A    between atoms: _650  and  _651
REMARK  275  A    between atoms: _650  and  _653
REMARK  276  A    between atoms: _653  and  _654
REMARK  277  A    between atoms: _657  and  _659
REMARK  278  A    between atoms: _659  and  _660
REMARK  279  A    between atoms: _659  and  _662
REMARK  280  A    between atoms: _662  and  _663
REMARK  281  A    between atoms: _668  and  _669
REMARK  282  A    between atoms: _671  and  _673
REMARK  283  A    between atoms: _673  and  _674
REMARK  284  A    between atoms: _673  and  _676
REMARK  285  A    between atoms: _676  and  _677
REMARK  286  A    between atoms: _677  and  _678
REMARK                            x       y       z     vdW  Elec       q    Type
REMARK                         _______ _______ _______ _____ _____    ______ ____
ROOT
ATOM      1  O   HOH     1      32.019  23.978  13.154  0.00  0.00    +0.000 OA
ENDROOT
TORSDOF 0
REMARK  Name = ../refined-set-2016/3bwj/3bwj_pocket.pdb
REMARK  286 active torsions:
REMARK  status: ('A' for Active; 'I' for Inactive)
REMARK    1  A    between atoms: _1  and  _3
REMARK    2  A    between atoms: _3  and  _4
REMARK    3  A    between atoms: _3  and  _6
REMARK    4  A    between atoms: _6  and  _7
REMARK    5  A    between atoms: _10  and  _12
REMARK    6  A    between atoms: _12  and  _13
REMARK    7  A    between atoms: _12  and  _15
REMARK    8  A    between atoms: _15  and  _16
REMARK    9  A    between atoms: _19  and  _21
REMARK   10  A    between atoms: _21  and  _22
REMARK   11  A    between atoms: _24  and  _26
REMARK   12  A    between atoms: _26  and  _27
REMARK   13  A    between atoms: _26  and  _29
REMARK   14  A    between atoms: _29  and  _30
REMARK   15  A    between atoms: _33  and  _35
REMARK   16  A    between atoms: _35  and  _36
REMARK   17  A    between atoms: _38  and  _40
REMARK   18  A    between atoms: _40  and  _41
REMARK   19  A    between atoms: _40  and  _43
REMARK   20  A    between atoms: _43  and  _44
REMARK   21  A    between atoms: _46  and  _48
REMARK   22  A    between atoms: _48  and  _49
REMARK   23  A    between atoms: _48  and  _51
REMARK   24  A    between atoms: _51  and  _52
REMARK   25  A    between atoms: _58  and  _60
REMARK   26  A    between atoms: _60  and  _61
REMARK   27  A    between atoms: _63  and  _65
REMARK   28  A    between atoms: _65  and  _66
REMARK   29  A    between atoms: _65  and  _68
REMARK   30  A    between atoms: _68  and  _69
REMARK   31  A    between atoms: _69  and  _70
REMARK   32  A    between atoms: _70  and  _71
REMARK   33  A    between atoms: _80  and  _82
REMARK   34  A    between atoms: _82  and  _83
REMARK   35  A    between atoms: _82  and  _85
REMARK   36  A    between atoms: _88  and  _90
REMARK   37  A    between atoms: _90  and  _91
REMARK   38  A    between atoms: _90  and  _93
REMARK   39  A    between atoms: _93  and  _94
REMARK   40  A    between atoms: _94  and  _95
REMARK   41  A    between atoms: _97  and  _99
REMARK   42  A    between atoms: _99  and  _100
REMARK   43  A    between atoms: _99  and  _102
REMARK   44  A    between atoms: _102  and  _103
REMARK   45  A    between atoms: _106  and  _108
REMARK   46  A    between atoms: _108  and  _109
REMARK   47  A    between atoms: _108  and  _111
REMARK   48  A    between atoms: _111  and  _112
REMARK   49  A    between atoms: _117  and  _118
REMARK   50  A    between atoms: _120  and  _122
REMARK   51  A    between atoms: _122  and  _123
REMARK   52  A    between atoms: _126  and  _128
REMARK   53  A    between atoms: _128  and  _129
REMARK   54  A    between atoms: _128  and  _131
REMARK   55  A    between atoms: _131  and  _132
REMARK   56  A    between atoms: _132  and  _133
REMARK   57  A    between atoms: _135  and  _137
REMARK   58  A    between atoms: _137  and  _138
REMARK   59  A    between atoms: _137  and  _140
REMARK   60  A    between atoms: _140  and  _141
REMARK   61  A    between atoms: _141  and  _142
REMARK   62  A    between atoms: _142  and  _143
REMARK   63  A    between atoms: _143  and  _144
REMARK   64  A    between atoms: _148  and  _150
REMARK   65  A    between atoms: _150  and  _151
REMARK   66  A    between atoms: _150  and  _153
REMARK   67  A    between atoms: _153  and  _154
REMARK   68  A    between atoms: _157  and  _159
REMARK   69  A    between atoms: _159  and  _160
REMARK   70  A    between atoms: _159  and  _162
REMARK   71  A    between atoms: _162  and  _163
REMARK   72  A    between atoms: _166  and  _168
REMARK   73  A    between atoms: _168  and  _169
REMARK   74  A    between atoms: _168  and  _171
REMARK   75  A    between atoms: _171  and  _172
REMARK   76  A    between atoms: _175  and  _177
REMARK   77  A    between atoms: _177  and  _178
REMARK   78  A    between atoms: _177  and  _180
REMARK   79  A    between atoms: _180  and  _181
REMARK   80  A    between atoms: _181  and  _182
REMARK   81  A    between atoms: _182  and  _183
REMARK   82  A    between atoms: _183  and  _184
REMARK   83  A    between atoms: _188  and  _190
REMARK   84  A    between atoms: _190  and  _191
REMARK   85  A    between atoms: _190  and  _193
REMARK   86  A    between atoms: _196  and  _198
REMARK   87  A    between atoms: _198  and  _199
REMARK   88  A    between atoms: _198  and  _201
REMARK   89  A    between atoms: _201  and  _202
REMARK   90  A    between atoms: _205  and  _207
REMARK   91  A    between atoms: _207  and  _208
REMARK   92  A    between atoms: _207  and  _210
REMARK   93  A    between atoms: _210  and  _211
REMARK   94  A    between atoms: _211  and  _212
REMARK   95  A    between atoms: _217  and  _219
REMARK   96  A    between atoms: _219  and  _220
REMARK   97  A    between atoms: _219  and  _222
REMARK   98  A    between atoms: _222  and  _223
REMARK   99  A    between atoms: _226  and  _228
REMARK  100  A    between atoms: _228  and  _229
REMARK  101  A    between atoms: _228  and  _231
REMARK  102  A    between atoms: _231  and  _232
REMARK  103  A    between atoms: _232  and  _233
REMARK  104  A    between atoms: _236  and  _238
REMARK  105  A    between atoms: _238  and  _239
REMARK  106  A    between atoms: _238  and  _241
REMARK  107  A    between atoms: _244  and  _246
REMARK  108  A    between atoms: _246  and  _247
REMARK  109  A    between atoms: _246  and  _249
REMARK  110  A    between atoms: _249  and  _250
REMARK  111  A    between atoms: _250  and  _251
REMARK  112  A    between atoms: _251  and  _252
REMARK  113  A    between atoms: _252  and  _253
REMARK  114  A    between atoms: _257  and  _259
REMARK  115  A    between atoms: _259  and  _260
REMARK  116  A    between atoms: _259  and  _262
REMARK  117  A    between atoms: _262  and  _263
REMARK  118  A    between atoms: _266  and  _268
REMARK  119  A    between atoms: _268  and  _269
REMARK  120  A    between atoms: _268  and  _271
REMARK  121  A    between atoms: _271  and  _272
REMARK  122  A    between atoms: _272  and  _273
REMARK  123  A    between atoms: _276  and  _278
REMARK  124  A    between atoms: _278  and  _279
REMARK  125  A    between atoms: _278  and  _281
REMARK  126  A    between atoms: _281  and  _282
REMARK  127  A    between atoms: _282  and  _283
REMARK  128  A    between atoms: _285  and  _287
REMARK  129  A    between atoms: _287  and  _288
REMARK  130  A    between atoms: _287  and  _290
REMARK  131  A    between atoms: _293  and  _295
REMARK  132  A    between atoms: _295  and  _296
REMARK  133  A    between atoms: _295  and  _298
REMARK  134  A    between atoms: _298  and  _299
REMARK  135  A    between atoms: _299  and  _300
REMARK  136  A    between atoms: _302  and  _304
REMARK  137  A    between atoms: _304  and  _305
REMARK  138  A    between atoms: _304  and  _307
REMARK  139  A    between atoms: _307  and  _308
REMARK  140  A    between atoms: _308  and  _309
REMARK  141  A    between atoms: _312  and  _314
REMARK  142  A    between atoms: _314  and  _315
REMARK  143  A    between atoms: _314  and  _317
REMARK  144  A    between atoms: _317  and  _318
REMARK  145  A    between atoms: _323  and  _324
REMARK  146  A    between atoms: _326  and  _328
REMARK  147  A    between atoms: _328  and  _329
REMARK  148  A    between atoms: _328  and  _331
REMARK  149  A    between atoms: _335  and  _336
REMARK  150  A    between atoms: _341  and  _343
REMARK  151  A    between atoms: _343  and  _344
REMARK  152  A    between atoms: _346  and  _348
REMARK  153  A    between atoms: _348  and  _349
REMARK  154  A    between atoms: _351  and  _353
REMARK  155  A    between atoms: _353  and  _354
REMARK  156  A    between atoms: _353  and  _356
REMARK  157  A    between atoms: _356  and  _357
REMARK  158  A    between atoms: _357  and  _358
REMARK  159  A    between atoms: _361  and  _363
REMARK  160  A    between atoms: _363  and  _364
REMARK  161  A    between atoms: _363  and  _366
REMARK  162  A    between atoms: _366  and  _367
REMARK  163  A    between atoms: _367  and  _368
REMARK  164  A    between atoms: _370  and  _372
REMARK  165  A    between atoms: _372  and  _373
REMARK  166  A    between atoms: _372  and  _375
REMARK  167  A    between atoms: _375  and  _376
REMARK  168  A    between atoms: _382  and  _384
REMARK  169  A    between atoms: _384  and  _385
REMARK  170  A    between atoms: _384  and  _387
REMARK  171  A    between atoms: _387  and  _388
REMARK  172  A    between atoms: _390  and  _392
REMARK  173  A    between atoms: _392  and  _393
REMARK  174  A    between atoms: _392  and  _395
REMARK  175  A    between atoms: _395  and  _396
REMARK  176  A    between atoms: _401  and  _402
REMARK  177  A    between atoms: _404  and  _406
REMARK  178  A    between atoms: _406  and  _407
REMARK  179  A    between atoms: _406  and  _409
REMARK  180  A    between atoms: _409  and  _410
REMARK  181  A    between atoms: _410  and  _411
REMARK  182  A    between atoms: _411  and  _412
REMARK  183  A    between atoms: _421  and  _423
REMARK  184  A    between atoms: _423  and  _424
REMARK  185  A    between atoms: _423  and  _426
REMARK  186  A    between atoms: _426  and  _427
REMARK  187  A    between atoms: _430  and  _432
REMARK  188  A    between atoms: _432  and  _433
REMARK  189  A    between atoms: _432  and  _435
REMARK  190  A    between atoms: _435  and  _436
REMARK  191  A    between atoms: _439  and  _441
REMARK  192  A    between atoms: _441  and  _442
REMARK  193  A    between atoms: _441  and  _444
REMARK  194  A    between atoms: _444  and  _445
REMARK  195  A    between atoms: _445  and  _446
REMARK  196  A    between atoms: _446  and  _447
REMARK  197  A    between atoms: _447  and  _448
REMARK  198  A    between atoms: _453  and  _454
REMARK  199  A    between atoms: _459  and  _461
REMARK  200  A    between atoms: _461  and  _462
REMARK  201  A    between atoms: _461  and  _464
REMARK  202  A    between atoms: _464  and  _465
REMARK  203  A    between atoms: _465  and  _466
REMARK  204  A    between atoms: _469  and  _471
REMARK  205  A    between atoms: _471  and  _472
REMARK  206  A    between atoms: _471  and  _474
REMARK  207  A    between atoms: _474  and  _475
REMARK  208  A    between atoms: _480  and  _482
REMARK  209  A    between atoms: _482  and  _483
REMARK  210  A    between atoms: _482  and  _485
REMARK  211  A    between atoms: _485  and  _486
REMARK  212  A    between atoms: _489  and  _491
REMARK  213  A    between atoms: _491  and  _492
REMARK  214  A    between atoms: _491  and  _494
REMARK  215  A    between atoms: _494  and  _495
REMARK  216  A    between atoms: _498  and  _500
REMARK  217  A    between atoms: _500  and  _501
REMARK  218  A    between atoms: _500  and  _503
REMARK  219  A    between atoms: _503  and  _504
REMARK  220  A    between atoms: _507  and  _509
REMARK  221  A    between atoms: _509  and  _510
REMARK  222  A    between atoms: _509  and  _512
REMARK  223  A    between atoms: _512  and  _513
REMARK  224  A    between atoms: _513  and  _514
REMARK  225  A    between atoms: _519  and  _521
REMARK  226  A    between atoms: _521  and  _522
REMARK  227  A    between atoms: _521  and  _524
REMARK  228  A    between atoms: _527  and  _529
REMARK  229  A    between atoms: _529  and  _530
REMARK  230  A    between atoms: _529  and  _532
REMARK  231  A    between atoms: _532  and  _533
REMARK  232  A    between atoms: _536  and  _538
REMARK  233  A    between atoms: _538  and  _539
REMARK  234  A    between atoms: _538  and  _541
REMARK  235  A    between atoms: _541  and  _542
REMARK  236  A    between atoms: _545  and  _547
REMARK  237  A    between atoms: _547  and  _548
REMARK  238  A    between atoms: _547  and  _550
REMARK  239  A    between atoms: _550  and  _551
REMARK  240  A    between atoms: _557  and  _559
REMARK  241  A    between atoms: _559  and  _560
REMARK  242  A    between atoms: _562  and  _564
REMARK  243  A    between atoms: _564  and  _565
REMARK  244  A    between atoms: _564  and  _567
REMARK  245  A    between atoms: _567  and  _568
REMARK  246  A    between atoms: _574  and  _576
REMARK  247  A    between atoms: _576  and  _577
REMARK  248  A    between atoms: _576  and  _579
REMARK  249  A    between atoms: _581  and  _583
REMARK  250  A    between atoms: _583  and  _584
REMARK  251  A    between atoms: _586  and  _588
REMARK  252  A    between atoms: _588  and  _589
REMARK  253  A    between atoms: _588  and  _591
REMARK  254  A    between atoms: _591  and  _592
REMARK  255  A    between atoms: _596  and  _597
REMARK  256  A    between atoms: _602  and  _604
REMARK  257  A    between atoms: _604  and  _605
REMARK  258  A    between atoms: _604  and  _607
REMARK  259  A    between atoms: _607  and  _608
REMARK  260  A    between atoms: _613  and  _614
REMARK  261  A    between atoms: _616  and  _618
REMARK  262  A    between atoms: _618  and  _619
REMARK  263  A    between atoms: _618  and  _621
REMARK  264  A    between atoms: _621  and  _622
REMARK  265  A    between atoms: _625  and  _627
REMARK  266  A    between atoms: _627  and  _628
REMARK  267  A    between atoms: _627  and  _630
REMARK  268  A    between atoms: _630  and  _631
REMARK  269  A    between atoms: _636  and  _638
REMARK  270  A    between atoms: _638  and  _639
REMARK  271  A    between atoms: _638  and  _641
REMARK  272  A    between atoms: _641  and  _642
REMARK  273  A    between atoms: _648  and  _650
REMARK  274  A    between atoms: _650  and  _651
REMARK  275  A    between atoms: _650  and  _653
REMARK  276  A    between atoms: _653  and  _654
REMARK  277  A    between atoms: _657  and  _659
REMARK  278  A    between atoms: _659  and  _660
REMARK  279  A    between atoms: _659  and  _662
REMARK  280  A    between atoms: _662  and  _663
REMARK  281  A    between atoms: _668  and  _669
REMARK  282  A    between atoms: _671  and  _673
REMARK  283  A    between atoms: _673  and  _674
REMARK  284  A    between atoms: _673  and  _676
REMARK  285  A    between atoms: _676  and  _677
REMARK  286  A    between atoms: _677  and  _678
REMARK                            x       y       z     vdW  Elec       q    Type
REMARK                         _______ _______ _______ _____ _____    ______ ____
ROOT
ATOM      1  O   HOH     1      39.393  32.930   4.909  0.00  0.00    +0.000 OA
ENDROOT
TORSDOF 0
REMARK  Name = ../refined-set-2016/3bwj/3bwj_pocket.pdb
REMARK  286 active torsions:
REMARK  status: ('A' for Active; 'I' for Inactive)
REMARK    1  A    between atoms: _1  and  _3
REMARK    2  A    between atoms: _3  and  _4
REMARK    3  A    between atoms: _3  and  _6
REMARK    4  A    between atoms: _6  and  _7
REMARK    5  A    between atoms: _10  and  _12
REMARK    6  A    between atoms: _12  and  _13
REMARK    7  A    between atoms: _12  and  _15
REMARK    8  A    between atoms: _15  and  _16
REMARK    9  A    between atoms: _19  and  _21
REMARK   10  A    between atoms: _21  and  _22
REMARK   11  A    between atoms: _24  and  _26
REMARK   12  A    between atoms: _26  and  _27
REMARK   13  A    between atoms: _26  and  _29
REMARK   14  A    between atoms: _29  and  _30
REMARK   15  A    between atoms: _33  and  _35
REMARK   16  A    between atoms: _35  and  _36
REMARK   17  A    between atoms: _38  and  _40
REMARK   18  A    between atoms: _40  and  _41
REMARK   19  A    between atoms: _40  and  _43
REMARK   20  A    between atoms: _43  and  _44
REMARK   21  A    between atoms: _46  and  _48
REMARK   22  A    between atoms: _48  and  _49
REMARK   23  A    between atoms: _48  and  _51
REMARK   24  A    between atoms: _51  and  _52
REMARK   25  A    between atoms: _58  and  _60
REMARK   26  A    between atoms: _60  and  _61
REMARK   27  A    between atoms: _63  and  _65
REMARK   28  A    between atoms: _65  and  _66
REMARK   29  A    between atoms: _65  and  _68
REMARK   30  A    between atoms: _68  and  _69
REMARK   31  A    between atoms: _69  and  _70
REMARK   32  A    between atoms: _70  and  _71
REMARK   33  A    between atoms: _80  and  _82
REMARK   34  A    between atoms: _82  and  _83
REMARK   35  A    between atoms: _82  and  _85
REMARK   36  A    between atoms: _88  and  _90
REMARK   37  A    between atoms: _90  and  _91
REMARK   38  A    between atoms: _90  and  _93
REMARK   39  A    between atoms: _93  and  _94
REMARK   40  A    between atoms: _94  and  _95
REMARK   41  A    between atoms: _97  and  _99
REMARK   42  A    between atoms: _99  and  _100
REMARK   43  A    between atoms: _99  and  _102
REMARK   44  A    between atoms: _102  and  _103
REMARK   45  A    between atoms: _106  and  _108
REMARK   46  A    between atoms: _108  and  _109
REMARK   47  A    between atoms: _108  and  _111
REMARK   48  A    between atoms: _111  and  _112
REMARK   49  A    between atoms: _117  and  _118
REMARK   50  A    between atoms: _120  and  _122
REMARK   51  A    between atoms: _122  and  _123
REMARK   52  A    between atoms: _126  and  _128
REMARK   53  A    between atoms: _128  and  _129
REMARK   54  A    between atoms: _128  and  _131
REMARK   55  A    between atoms: _131  and  _132
REMARK   56  A    between atoms: _132  and  _133
REMARK   57  A    between atoms: _135  and  _137
REMARK   58  A    between atoms: _137  and  _138
REMARK   59  A    between atoms: _137  and  _140
REMARK   60  A    between atoms: _140  and  _141
REMARK   61  A    between atoms: _141  and  _142
REMARK   62  A    between atoms: _142  and  _143
REMARK   63  A    between atoms: _143  and  _144
REMARK   64  A    between atoms: _148  and  _150
REMARK   65  A    between atoms: _150  and  _151
REMARK   66  A    between atoms: _150  and  _153
REMARK   67  A    between atoms: _153  and  _154
REMARK   68  A    between atoms: _157  and  _159
REMARK   69  A    between atoms: _159  and  _160
REMARK   70  A    between atoms: _159  and  _162
REMARK   71  A    between atoms: _162  and  _163
REMARK   72  A    between atoms: _166  and  _168
REMARK   73  A    between atoms: _168  and  _169
REMARK   74  A    between atoms: _168  and  _171
REMARK   75  A    between atoms: _171  and  _172
REMARK   76  A    between atoms: _175  and  _177
REMARK   77  A    between atoms: _177  and  _178
REMARK   78  A    between atoms: _177  and  _180
REMARK   79  A    between atoms: _180  and  _181
REMARK   80  A    between atoms: _181  and  _182
REMARK   81  A    between atoms: _182  and  _183
REMARK   82  A    between atoms: _183  and  _184
REMARK   83  A    between atoms: _188  and  _190
REMARK   84  A    between atoms: _190  and  _191
REMARK   85  A    between atoms: _190  and  _193
REMARK   86  A    between atoms: _196  and  _198
REMARK   87  A    between atoms: _198  and  _199
REMARK   88  A    between atoms: _198  and  _201
REMARK   89  A    between atoms: _201  and  _202
REMARK   90  A    between atoms: _205  and  _207
REMARK   91  A    between atoms: _207  and  _208
REMARK   92  A    between atoms: _207  and  _210
REMARK   93  A    between atoms: _210  and  _211
REMARK   94  A    between atoms: _211  and  _212
REMARK   95  A    between atoms: _217  and  _219
REMARK   96  A    between atoms: _219  and  _220
REMARK   97  A    between atoms: _219  and  _222
REMARK   98  A    between atoms: _222  and  _223
REMARK   99  A    between atoms: _226  and  _228
REMARK  100  A    between atoms: _228  and  _229
REMARK  101  A    between atoms: _228  and  _231
REMARK  102  A    between atoms: _231  and  _232
REMARK  103  A    between atoms: _232  and  _233
REMARK  104  A    between atoms: _236  and  _238
REMARK  105  A    between atoms: _238  and  _239
REMARK  106  A    between atoms: _238  and  _241
REMARK  107  A    between atoms: _244  and  _246
REMARK  108  A    between atoms: _246  and  _247
REMARK  109  A    between atoms: _246  and  _249
REMARK  110  A    between atoms: _249  and  _250
REMARK  111  A    between atoms: _250  and  _251
REMARK  112  A    between atoms: _251  and  _252
REMARK  113  A    between atoms: _252  and  _253
REMARK  114  A    between atoms: _257  and  _259
REMARK  115  A    between atoms: _259  and  _260
REMARK  116  A    between atoms: _259  and  _262
REMARK  117  A    between atoms: _262  and  _263
REMARK  118  A    between atoms: _266  and  _268
REMARK  119  A    between atoms: _268  and  _269
REMARK  120  A    between atoms: _268  and  _271
REMARK  121  A    between atoms: _271  and  _272
REMARK  122  A    between atoms: _272  and  _273
REMARK  123  A    between atoms: _276  and  _278
REMARK  124  A    between atoms: _278  and  _279
REMARK  125  A    between atoms: _278  and  _281
REMARK  126  A    between atoms: _281  and  _282
REMARK  127  A    between atoms: _282  and  _283
REMARK  128  A    between atoms: _285  and  _287
REMARK  129  A    between atoms: _287  and  _288
REMARK  130  A    between atoms: _287  and  _290
REMARK  131  A    between atoms: _293  and  _295
REMARK  132  A    between atoms: _295  and  _296
REMARK  133  A    between atoms: _295  and  _298
REMARK  134  A    between atoms: _298  and  _299
REMARK  135  A    between atoms: _299  and  _300
REMARK  136  A    between atoms: _302  and  _304
REMARK  137  A    between atoms: _304  and  _305
REMARK  138  A    between atoms: _304  and  _307
REMARK  139  A    between atoms: _307  and  _308
REMARK  140  A    between atoms: _308  and  _309
REMARK  141  A    between atoms: _312  and  _314
REMARK  142  A    between atoms: _314  and  _315
REMARK  143  A    between atoms: _314  and  _317
REMARK  144  A    between atoms: _317  and  _318
REMARK  145  A    between atoms: _323  and  _324
REMARK  146  A    between atoms: _326  and  _328
REMARK  147  A    between atoms: _328  and  _329
REMARK  148  A    between atoms: _328  and  _331
REMARK  149  A    between atoms: _335  and  _336
REMARK  150  A    between atoms: _341  and  _343
REMARK  151  A    between atoms: _343  and  _344
REMARK  152  A    between atoms: _346  and  _348
REMARK  153  A    between atoms: _348  and  _349
REMARK  154  A    between atoms: _351  and  _353
REMARK  155  A    between atoms: _353  and  _354
REMARK  156  A    between atoms: _353  and  _356
REMARK  157  A    between atoms: _356  and  _357
REMARK  158  A    between atoms: _357  and  _358
REMARK  159  A    between atoms: _361  and  _363
REMARK  160  A    between atoms: _363  and  _364
REMARK  161  A    between atoms: _363  and  _366
REMARK  162  A    between atoms: _366  and  _367
REMARK  163  A    between atoms: _367  and  _368
REMARK  164  A    between atoms: _370  and  _372
REMARK  165  A    between atoms: _372  and  _373
REMARK  166  A    between atoms: _372  and  _375
REMARK  167  A    between atoms: _375  and  _376
REMARK  168  A    between atoms: _382  and  _384
REMARK  169  A    between atoms: _384  and  _385
REMARK  170  A    between atoms: _384  and  _387
REMARK  171  A    between atoms: _387  and  _388
REMARK  172  A    between atoms: _390  and  _392
REMARK  173  A    between atoms: _392  and  _393
REMARK  174  A    between atoms: _392  and  _395
REMARK  175  A    between atoms: _395  and  _396
REMARK  176  A    between atoms: _401  and  _402
REMARK  177  A    between atoms: _404  and  _406
REMARK  178  A    between atoms: _406  and  _407
REMARK  179  A    between atoms: _406  and  _409
REMARK  180  A    between atoms: _409  and  _410
REMARK  181  A    between atoms: _410  and  _411
REMARK  182  A    between atoms: _411  and  _412
REMARK  183  A    between atoms: _421  and  _423
REMARK  184  A    between atoms: _423  and  _424
REMARK  185  A    between atoms: _423  and  _426
REMARK  186  A    between atoms: _426  and  _427
REMARK  187  A    between atoms: _430  and  _432
REMARK  188  A    between atoms: _432  and  _433
REMARK  189  A    between atoms: _432  and  _435
REMARK  190  A    between atoms: _435  and  _436
REMARK  191  A    between atoms: _439  and  _441
REMARK  192  A    between atoms: _441  and  _442
REMARK  193  A    between atoms: _441  and  _444
REMARK  194  A    between atoms: _444  and  _445
REMARK  195  A    between atoms: _445  and  _446
REMARK  196  A    between atoms: _446  and  _447
REMARK  197  A    between atoms: _447  and  _448
REMARK  198  A    between atoms: _453  and  _454
REMARK  199  A    between atoms: _459  and  _461
REMARK  200  A    between atoms: _461  and  _462
REMARK  201  A    between atoms: _461  and  _464
REMARK  202  A    between atoms: _464  and  _465
REMARK  203  A    between atoms: _465  and  _466
REMARK  204  A    between atoms: _469  and  _471
REMARK  205  A    between atoms: _471  and  _472
REMARK  206  A    between atoms: _471  and  _474
REMARK  207  A    between atoms: _474  and  _475
REMARK  208  A    between atoms: _480  and  _482
REMARK  209  A    between atoms: _482  and  _483
REMARK  210  A    between atoms: _482  and  _485
REMARK  211  A    between atoms: _485  and  _486
REMARK  212  A    between atoms: _489  and  _491
REMARK  213  A    between atoms: _491  and  _492
REMARK  214  A    between atoms: _491  and  _494
REMARK  215  A    between atoms: _494  and  _495
REMARK  216  A    between atoms: _498  and  _500
REMARK  217  A    between atoms: _500  and  _501
REMARK  218  A    between atoms: _500  and  _503
REMARK  219  A    between atoms: _503  and  _504
REMARK  220  A    between atoms: _507  and  _509
REMARK  221  A    between atoms: _509  and  _510
REMARK  222  A    between atoms: _509  and  _512
REMARK  223  A    between atoms: _512  and  _513
REMARK  224  A    between atoms: _513  and  _514
REMARK  225  A    between atoms: _519  and  _521
REMARK  226  A    between atoms: _521  and  _522
REMARK  227  A    between atoms: _521  and  _524
REMARK  228  A    between atoms: _527  and  _529
REMARK  229  A    between atoms: _529  and  _530
REMARK  230  A    between atoms: _529  and  _532
REMARK  231  A    between atoms: _532  and  _533
REMARK  232  A    between atoms: _536  and  _538
REMARK  233  A    between atoms: _538  and  _539
REMARK  234  A    between atoms: _538  and  _541
REMARK  235  A    between atoms: _541  and  _542
REMARK  236  A    between atoms: _545  and  _547
REMARK  237  A    between atoms: _547  and  _548
REMARK  238  A    between atoms: _547  and  _550
REMARK  239  A    between atoms: _550  and  _551
REMARK  240  A    between atoms: _557  and  _559
REMARK  241  A    between atoms: _559  and  _560
REMARK  242  A    between atoms: _562  and  _564
REMARK  243  A    between atoms: _564  and  _565
REMARK  244  A    between atoms: _564  and  _567
REMARK  245  A    between atoms: _567  and  _568
REMARK  246  A    between atoms: _574  and  _576
REMARK  247  A    between atoms: _576  and  _577
REMARK  248  A    between atoms: _576  and  _579
REMARK  249  A    between atoms: _581  and  _583
REMARK  250  A    between atoms: _583  and  _584
REMARK  251  A    between atoms: _586  and  _588
REMARK  252  A    between atoms: _588  and  _589
REMARK  253  A    between atoms: _588  and  _591
REMARK  254  A    between atoms: _591  and  _592
REMARK  255  A    between atoms: _596  and  _597
REMARK  256  A    between atoms: _602  and  _604
REMARK  257  A    between atoms: _604  and  _605
REMARK  258  A    between atoms: _604  and  _607
REMARK  259  A    between atoms: _607  and  _608
REMARK  260  A    between atoms: _613  and  _614
REMARK  261  A    between atoms: _616  and  _618
REMARK  262  A    between atoms: _618  and  _619
REMARK  263  A    between atoms: _618  and  _621
REMARK  264  A    between atoms: _621  and  _622
REMARK  265  A    between atoms: _625  and  _627
REMARK  266  A    between atoms: _627  and  _628
REMARK  267  A    between atoms: _627  and  _630
REMARK  268  A    between atoms: _630  and  _631
REMARK  269  A    between atoms: _636  and  _638
REMARK  270  A    between atoms: _638  and  _639
REMARK  271  A    between atoms: _638  and  _641
REMARK  272  A    between atoms: _641  and  _642
REMARK  273  A    between atoms: _648  and  _650
REMARK  274  A    between atoms: _650  and  _651
REMARK  275  A    between atoms: _650  and  _653
REMARK  276  A    between atoms: _653  and  _654
REMARK  277  A    between atoms: _657  and  _659
REMARK  278  A    between atoms: _659  and  _660
REMARK  279  A    between atoms: _659  and  _662
REMARK  280  A    between atoms: _662  and  _663
REMARK  281  A    between atoms: _668  and  _669
REMARK  282  A    between atoms: _671  and  _673
REMARK  283  A    between atoms: _673  and  _674
REMARK  284  A    between atoms: _673  and  _676
REMARK  285  A    between atoms: _676  and  _677
REMARK  286  A    between atoms: _677  and  _678
REMARK                            x       y       z     vdW  Elec       q    Type
REMARK                         _______ _______ _______ _____ _____    ______ ____
ROOT
ATOM      1  O   HOH     1      32.557  30.987  14.230  0.00  0.00    +0.000 OA
ENDROOT
TORSDOF 0
