REMARK  Name = ../refined-set-2016/5a7b/5a7b_pocket.pdb
REMARK  106 active torsions:
REMARK  status: ('A' for Active; 'I' for Inactive)
REMARK    1  A    between atoms: _1  and  _3
REMARK    2  A    between atoms: _3  and  _4
REMARK    3  A    between atoms: _3  and  _6
REMARK    4  A    between atoms: _6  and  _7
REMARK    5  A    between atoms: _12  and  _13
REMARK    6  A    between atoms: _15  and  _17
REMARK    7  A    between atoms: _17  and  _18
REMARK    8  A    between atoms: _17  and  _20
REMARK    9  A    between atoms: _20  and  _21
REMARK   10  A    between atoms: _27  and  _29
REMARK   11  A    between atoms: _29  and  _30
REMARK   12  A    between atoms: _29  and  _32
REMARK   13  A    between atoms: _32  and  _33
REMARK   14  A    between atoms: _33  and  _34
REMARK   15  A    between atoms: _34  and  _35
REMARK   16  A    between atoms: _44  and  _46
REMARK   17  A    between atoms: _46  and  _47
REMARK   18  A    between atoms: _46  and  _49
REMARK   19  A    between atoms: _49  and  _50
REMARK   20  A    between atoms: _50  and  _51
REMARK   21  A    between atoms: _56  and  _58
REMARK   22  A    between atoms: _58  and  _59
REMARK   23  A    between atoms: _58  and  _61
REMARK   24  A    between atoms: _61  and  _62
REMARK   25  A    between atoms: _65  and  _67
REMARK   26  A    between atoms: _67  and  _68
REMARK   27  A    between atoms: _67  and  _70
REMARK   28  A    between atoms: _70  and  _71
REMARK   29  A    between atoms: _81  and  _83
REMARK   30  A    between atoms: _83  and  _84
REMARK   31  A    between atoms: _83  and  _86
REMARK   32  A    between atoms: _89  and  _91
REMARK   33  A    between atoms: _91  and  _92
REMARK   34  A    between atoms: _91  and  _94
REMARK   35  A    between atoms: _94  and  _95
REMARK   36  A    between atoms: _98  and  _100
REMARK   37  A    between atoms: _100  and  _101
REMARK   38  A    between atoms: _100  and  _103
REMARK   39  A    between atoms: _103  and  _104
REMARK   40  A    between atoms: _106  and  _108
REMARK   41  A    between atoms: _108  and  _109
REMARK   42  A    between atoms: _108  and  _111
REMARK   43  A    between atoms: _111  and  _112
REMARK   44  A    between atoms: _116  and  _117
REMARK   45  A    between atoms: _123  and  _124
REMARK   46  A    between atoms: _130  and  _131
REMARK   47  A    between atoms: _136  and  _138
REMARK   48  A    between atoms: _138  and  _139
REMARK   49  A    between atoms: _141  and  _143
REMARK   50  A    between atoms: _143  and  _144
REMARK   51  A    between atoms: _143  and  _146
REMARK   52  A    between atoms: _146  and  _147
REMARK   53  A    between atoms: _150  and  _152
REMARK   54  A    between atoms: _152  and  _153
REMARK   55  A    between atoms: _152  and  _155
REMARK   56  A    between atoms: _155  and  _156
REMARK   57  A    between atoms: _156  and  _157
REMARK   58  A    between atoms: _157  and  _158
REMARK   59  A    between atoms: _167  and  _169
REMARK   60  A    between atoms: _169  and  _170
REMARK   61  A    between atoms: _169  and  _172
REMARK   62  A    between atoms: _175  and  _177
REMARK   63  A    between atoms: _177  and  _178
REMARK   64  A    between atoms: _177  and  _180
REMARK   65  A    between atoms: _180  and  _181
REMARK   66  A    between atoms: _181  and  _182
REMARK   67  A    between atoms: _182  and  _183
REMARK   68  A    between atoms: _193  and  _194
REMARK   69  A    between atoms: _199  and  _201
REMARK   70  A    between atoms: _201  and  _202
REMARK   71  A    between atoms: _201  and  _204
REMARK   72  A    between atoms: _206  and  _208
REMARK   73  A    between atoms: _208  and  _209
REMARK   74  A    between atoms: _208  and  _211
REMARK   75  A    between atoms: _211  and  _212
REMARK   76  A    between atoms: _212  and  _213
REMARK   77  A    between atoms: _217  and  _218
REMARK   78  A    between atoms: _224  and  _225
REMARK   79  A    between atoms: _230  and  _232
REMARK   80  A    between atoms: _232  and  _233
REMARK   81  A    between atoms: _232  and  _235
REMARK   82  A    between atoms: _235  and  _236
REMARK   83  A    between atoms: _236  and  _237
REMARK   84  A    between atoms: _240  and  _242
REMARK   85  A    between atoms: _242  and  _243
REMARK   86  A    between atoms: _242  and  _245
REMARK   87  A    between atoms: _245  and  _246
REMARK   88  A    between atoms: _248  and  _250
REMARK   89  A    between atoms: _250  and  _251
REMARK   90  A    between atoms: _250  and  _253
REMARK   91  A    between atoms: _253  and  _254
REMARK   92  A    between atoms: _257  and  _259
REMARK   93  A    between atoms: _259  and  _260
REMARK   94  A    between atoms: _259  and  _262
REMARK   95  A    between atoms: _264  and  _266
REMARK   96  A    between atoms: _266  and  _267
REMARK   97  A    between atoms: _266  and  _269
REMARK   98  A    between atoms: _269  and  _270
REMARK   99  A    between atoms: _273  and  _275
REMARK  100  A    between atoms: _275  and  _276
REMARK  101  A    between atoms: _275  and  _278
REMARK  102  A    between atoms: _278  and  _279
REMARK  103  A    between atoms: _282  and  _284
REMARK  104  A    between atoms: _284  and  _285
REMARK  105  A    between atoms: _284  and  _287
REMARK  106  A    between atoms: _287  and  _288
REMARK                            x       y       z     vdW  Elec       q    Type
REMARK                         _______ _______ _______ _____ _____    ______ ____
ROOT
ATOM      1  CG  TYR A   1      99.626  94.680 -47.200  0.00  0.00    -0.020 A 
ATOM      2  CD2 TYR A   1     100.398  93.557 -47.480  0.00  0.00    -0.001 A 
ATOM      3  CE2 TYR A   1     100.561  93.113 -48.795  0.00  0.00    +0.036 A 
ATOM      4  CZ  TYR A   1      99.965  93.816 -49.824  0.00  0.00    +0.134 A 
ATOM      5  CE1 TYR A   1      99.212  94.931 -49.561  0.00  0.00    +0.036 A 
ATOM      6  CD1 TYR A   1      99.052  95.361 -48.263  0.00  0.00    -0.001 A 
ENDROOT
BRANCH   4   7
ATOM      7  OH  TYR A   1     100.113  93.403 -51.136  0.00  0.00    -0.506 OA
ATOM      8  HH  TYR A   1      99.621  94.021 -51.733  0.00  0.00    +0.292 HD
ENDBRANCH   4   7
BRANCH   1   9
ATOM      9  CB  TYR A   1      99.468  95.199 -45.793  0.00  0.00    +0.051 C 
BRANCH   9  10
ATOM     10  CA  TYR A   1     100.336  96.452 -45.595  0.00  0.00    +0.137 C 
BRANCH  10  11
ATOM     11  N   TYR A   1     101.722  96.146 -45.911  0.00  0.00    -0.239 NA
ATOM     12  H   TYR A   1     102.157  95.282 -45.530  0.00  0.00    +0.142 HD
ENDBRANCH  10  11
BRANCH  10  13
ATOM     13  C   TYR A   1     100.127  97.072 -44.219  0.00  0.00    +0.224 C 
ATOM     14  O   TYR A   1      99.002  97.365 -43.854  0.00  0.00    -0.287 OA
ENDBRANCH  10  13
ENDBRANCH   9  10
ENDBRANCH   1   9
TORSDOF 5
REMARK  Name = ../refined-set-2016/5a7b/5a7b_pocket.pdb
REMARK  106 active torsions:
REMARK  status: ('A' for Active; 'I' for Inactive)
REMARK    1  A    between atoms: _1  and  _3
REMARK    2  A    between atoms: _3  and  _4
REMARK    3  A    between atoms: _3  and  _6
REMARK    4  A    between atoms: _6  and  _7
REMARK    5  A    between atoms: _12  and  _13
REMARK    6  A    between atoms: _15  and  _17
REMARK    7  A    between atoms: _17  and  _18
REMARK    8  A    between atoms: _17  and  _20
REMARK    9  A    between atoms: _20  and  _21
REMARK   10  A    between atoms: _27  and  _29
REMARK   11  A    between atoms: _29  and  _30
REMARK   12  A    between atoms: _29  and  _32
REMARK   13  A    between atoms: _32  and  _33
REMARK   14  A    between atoms: _33  and  _34
REMARK   15  A    between atoms: _34  and  _35
REMARK   16  A    between atoms: _44  and  _46
REMARK   17  A    between atoms: _46  and  _47
REMARK   18  A    between atoms: _46  and  _49
REMARK   19  A    between atoms: _49  and  _50
REMARK   20  A    between atoms: _50  and  _51
REMARK   21  A    between atoms: _56  and  _58
REMARK   22  A    between atoms: _58  and  _59
REMARK   23  A    between atoms: _58  and  _61
REMARK   24  A    between atoms: _61  and  _62
REMARK   25  A    between atoms: _65  and  _67
REMARK   26  A    between atoms: _67  and  _68
REMARK   27  A    between atoms: _67  and  _70
REMARK   28  A    between atoms: _70  and  _71
REMARK   29  A    between atoms: _81  and  _83
REMARK   30  A    between atoms: _83  and  _84
REMARK   31  A    between atoms: _83  and  _86
REMARK   32  A    between atoms: _89  and  _91
REMARK   33  A    between atoms: _91  and  _92
REMARK   34  A    between atoms: _91  and  _94
REMARK   35  A    between atoms: _94  and  _95
REMARK   36  A    between atoms: _98  and  _100
REMARK   37  A    between atoms: _100  and  _101
REMARK   38  A    between atoms: _100  and  _103
REMARK   39  A    between atoms: _103  and  _104
REMARK   40  A    between atoms: _106  and  _108
REMARK   41  A    between atoms: _108  and  _109
REMARK   42  A    between atoms: _108  and  _111
REMARK   43  A    between atoms: _111  and  _112
REMARK   44  A    between atoms: _116  and  _117
REMARK   45  A    between atoms: _123  and  _124
REMARK   46  A    between atoms: _130  and  _131
REMARK   47  A    between atoms: _136  and  _138
REMARK   48  A    between atoms: _138  and  _139
REMARK   49  A    between atoms: _141  and  _143
REMARK   50  A    between atoms: _143  and  _144
REMARK   51  A    between atoms: _143  and  _146
REMARK   52  A    between atoms: _146  and  _147
REMARK   53  A    between atoms: _150  and  _152
REMARK   54  A    between atoms: _152  and  _153
REMARK   55  A    between atoms: _152  and  _155
REMARK   56  A    between atoms: _155  and  _156
REMARK   57  A    between atoms: _156  and  _157
REMARK   58  A    between atoms: _157  and  _158
REMARK   59  A    between atoms: _167  and  _169
REMARK   60  A    between atoms: _169  and  _170
REMARK   61  A    between atoms: _169  and  _172
REMARK   62  A    between atoms: _175  and  _177
REMARK   63  A    between atoms: _177  and  _178
REMARK   64  A    between atoms: _177  and  _180
REMARK   65  A    between atoms: _180  and  _181
REMARK   66  A    between atoms: _181  and  _182
REMARK   67  A    between atoms: _182  and  _183
REMARK   68  A    between atoms: _193  and  _194
REMARK   69  A    between atoms: _199  and  _201
REMARK   70  A    between atoms: _201  and  _202
REMARK   71  A    between atoms: _201  and  _204
REMARK   72  A    between atoms: _206  and  _208
REMARK   73  A    between atoms: _208  and  _209
REMARK   74  A    between atoms: _208  and  _211
REMARK   75  A    between atoms: _211  and  _212
REMARK   76  A    between atoms: _212  and  _213
REMARK   77  A    between atoms: _217  and  _218
REMARK   78  A    between atoms: _224  and  _225
REMARK   79  A    between atoms: _230  and  _232
REMARK   80  A    between atoms: _232  and  _233
REMARK   81  A    between atoms: _232  and  _235
REMARK   82  A    between atoms: _235  and  _236
REMARK   83  A    between atoms: _236  and  _237
REMARK   84  A    between atoms: _240  and  _242
REMARK   85  A    between atoms: _242  and  _243
REMARK   86  A    between atoms: _242  and  _245
REMARK   87  A    between atoms: _245  and  _246
REMARK   88  A    between atoms: _248  and  _250
REMARK   89  A    between atoms: _250  and  _251
REMARK   90  A    between atoms: _250  and  _253
REMARK   91  A    between atoms: _253  and  _254
REMARK   92  A    between atoms: _257  and  _259
REMARK   93  A    between atoms: _259  and  _260
REMARK   94  A    between atoms: _259  and  _262
REMARK   95  A    between atoms: _264  and  _266
REMARK   96  A    between atoms: _266  and  _267
REMARK   97  A    between atoms: _266  and  _269
REMARK   98  A    between atoms: _269  and  _270
REMARK   99  A    between atoms: _273  and  _275
REMARK  100  A    between atoms: _275  and  _276
REMARK  101  A    between atoms: _275  and  _278
REMARK  102  A    between atoms: _278  and  _279
REMARK  103  A    between atoms: _282  and  _284
REMARK  104  A    between atoms: _284  and  _285
REMARK  105  A    between atoms: _284  and  _287
REMARK  106  A    between atoms: _287  and  _288
REMARK                            x       y       z     vdW  Elec       q    Type
REMARK                         _______ _______ _______ _____ _____    ______ ____
ROOT
ATOM      1  CA  ARG A   2      99.765  94.732 -36.553  0.00  0.00    +0.137 C 
ENDROOT
BRANCH   1   3
ATOM      2  C   PHE A   1     100.484  94.818 -38.867  0.00  0.00    +0.239 C 
ATOM      3  N   ARG A   2      99.491  94.830 -37.984  0.00  0.00    -0.298 N 
ATOM      4  H   ARG A   2      98.509  94.910 -38.316  0.00  0.00    +0.150 HD
ATOM      5  O   PHE A   1     101.673  94.858 -38.544  0.00  0.00    -0.274 OA
BRANCH   2   6
ATOM      6  CA  PHE A   1     100.071  94.733 -40.332  0.00  0.00    +0.149 C 
BRANCH   6   7
ATOM      7  N   PHE A   1     100.727  95.731 -41.180  0.00  0.00    -0.238 NA
ATOM      8  H   PHE A   1     101.490  95.419 -41.814  0.00  0.00    +0.142 HD
ENDBRANCH   6   7
BRANCH   6   9
ATOM      9  CB  PHE A   1     100.388  93.337 -40.854  0.00  0.00    +0.053 C 
BRANCH   9  10
ATOM     10  CG  PHE A   1      99.801  92.228 -40.027  0.00  0.00    -0.020 A 
ATOM     11  CD2 PHE A   1     100.621  91.430 -39.232  0.00  0.00    -0.004 A 
ATOM     12  CE2 PHE A   1     100.073  90.384 -38.463  0.00  0.00    -0.000 A 
ATOM     13  CZ  PHE A   1      98.709  90.145 -38.498  0.00  0.00    -0.000 A 
ATOM     14  CE1 PHE A   1      97.889  90.930 -39.296  0.00  0.00    -0.000 A 
ATOM     15  CD1 PHE A   1      98.441  91.971 -40.055  0.00  0.00    -0.004 A 
ENDBRANCH   9  10
ENDBRANCH   6   9
ENDBRANCH   2   6
ENDBRANCH   1   3
BRANCH   1  16
ATOM     16  C   ARG A   2      98.520  94.264 -35.814  0.00  0.00    +0.227 C 
ATOM     17  O   ARG A   2      97.406  94.353 -36.338  0.00  0.00    -0.286 OA
ENDBRANCH   1  16
BRANCH   1  18
ATOM     18  CB  ARG A   2     100.280  96.067 -35.973  0.00  0.00    +0.031 C 
BRANCH  18  19
ATOM     19  CG  ARG A   2      99.244  97.184 -35.817  0.00  0.00    +0.045 C 
BRANCH  19  20
ATOM     20  CD  ARG A   2      98.975  97.882 -37.133  0.00  0.00    +0.174 C 
BRANCH  20  21
ATOM     21  NE  ARG A   2      98.104  99.044 -36.951  0.00  0.00    -0.265 N 
ATOM     22  HE  ARG A   2      97.792  99.279 -35.987  0.00  0.00    +0.259 HD
ATOM     23  CZ  ARG A   2      97.690  99.815 -37.953  0.00  0.00    +0.342 C 
ATOM     24  NH2 ARG A   2      96.886 100.850 -37.728  0.00  0.00    -0.292 N 
ATOM     25 HH21 ARG A   2      96.573 101.065 -36.760  0.00  0.00    +0.255 HD
ATOM     26 HH22 ARG A   2      96.570 101.445 -38.520  0.00  0.00    +0.255 HD
ATOM     27  NH1 ARG A   2      98.093  99.564 -39.192  0.00  0.00    -0.292 N 
ATOM     28 HH11 ARG A   2      98.732  98.765 -39.379  0.00  0.00    +0.255 HD
ATOM     29 HH12 ARG A   2      97.770 100.166 -39.976  0.00  0.00    +0.255 HD
ENDBRANCH  20  21
ENDBRANCH  19  20
ENDBRANCH  18  19
ENDBRANCH   1  18
TORSDOF 10
REMARK  Name = ../refined-set-2016/5a7b/5a7b_pocket.pdb
REMARK  106 active torsions:
REMARK  status: ('A' for Active; 'I' for Inactive)
REMARK    1  A    between atoms: _1  and  _3
REMARK    2  A    between atoms: _3  and  _4
REMARK    3  A    between atoms: _3  and  _6
REMARK    4  A    between atoms: _6  and  _7
REMARK    5  A    between atoms: _12  and  _13
REMARK    6  A    between atoms: _15  and  _17
REMARK    7  A    between atoms: _17  and  _18
REMARK    8  A    between atoms: _17  and  _20
REMARK    9  A    between atoms: _20  and  _21
REMARK   10  A    between atoms: _27  and  _29
REMARK   11  A    between atoms: _29  and  _30
REMARK   12  A    between atoms: _29  and  _32
REMARK   13  A    between atoms: _32  and  _33
REMARK   14  A    between atoms: _33  and  _34
REMARK   15  A    between atoms: _34  and  _35
REMARK   16  A    between atoms: _44  and  _46
REMARK   17  A    between atoms: _46  and  _47
REMARK   18  A    between atoms: _46  and  _49
REMARK   19  A    between atoms: _49  and  _50
REMARK   20  A    between atoms: _50  and  _51
REMARK   21  A    between atoms: _56  and  _58
REMARK   22  A    between atoms: _58  and  _59
REMARK   23  A    between atoms: _58  and  _61
REMARK   24  A    between atoms: _61  and  _62
REMARK   25  A    between atoms: _65  and  _67
REMARK   26  A    between atoms: _67  and  _68
REMARK   27  A    between atoms: _67  and  _70
REMARK   28  A    between atoms: _70  and  _71
REMARK   29  A    between atoms: _81  and  _83
REMARK   30  A    between atoms: _83  and  _84
REMARK   31  A    between atoms: _83  and  _86
REMARK   32  A    between atoms: _89  and  _91
REMARK   33  A    between atoms: _91  and  _92
REMARK   34  A    between atoms: _91  and  _94
REMARK   35  A    between atoms: _94  and  _95
REMARK   36  A    between atoms: _98  and  _100
REMARK   37  A    between atoms: _100  and  _101
REMARK   38  A    between atoms: _100  and  _103
REMARK   39  A    between atoms: _103  and  _104
REMARK   40  A    between atoms: _106  and  _108
REMARK   41  A    between atoms: _108  and  _109
REMARK   42  A    between atoms: _108  and  _111
REMARK   43  A    between atoms: _111  and  _112
REMARK   44  A    between atoms: _116  and  _117
REMARK   45  A    between atoms: _123  and  _124
REMARK   46  A    between atoms: _130  and  _131
REMARK   47  A    between atoms: _136  and  _138
REMARK   48  A    between atoms: _138  and  _139
REMARK   49  A    between atoms: _141  and  _143
REMARK   50  A    between atoms: _143  and  _144
REMARK   51  A    between atoms: _143  and  _146
REMARK   52  A    between atoms: _146  and  _147
REMARK   53  A    between atoms: _150  and  _152
REMARK   54  A    between atoms: _152  and  _153
REMARK   55  A    between atoms: _152  and  _155
REMARK   56  A    between atoms: _155  and  _156
REMARK   57  A    between atoms: _156  and  _157
REMARK   58  A    between atoms: _157  and  _158
REMARK   59  A    between atoms: _167  and  _169
REMARK   60  A    between atoms: _169  and  _170
REMARK   61  A    between atoms: _169  and  _172
REMARK   62  A    between atoms: _175  and  _177
REMARK   63  A    between atoms: _177  and  _178
REMARK   64  A    between atoms: _177  and  _180
REMARK   65  A    between atoms: _180  and  _181
REMARK   66  A    between atoms: _181  and  _182
REMARK   67  A    between atoms: _182  and  _183
REMARK   68  A    between atoms: _193  and  _194
REMARK   69  A    between atoms: _199  and  _201
REMARK   70  A    between atoms: _201  and  _202
REMARK   71  A    between atoms: _201  and  _204
REMARK   72  A    between atoms: _206  and  _208
REMARK   73  A    between atoms: _208  and  _209
REMARK   74  A    between atoms: _208  and  _211
REMARK   75  A    between atoms: _211  and  _212
REMARK   76  A    between atoms: _212  and  _213
REMARK   77  A    between atoms: _217  and  _218
REMARK   78  A    between atoms: _224  and  _225
REMARK   79  A    between atoms: _230  and  _232
REMARK   80  A    between atoms: _232  and  _233
REMARK   81  A    between atoms: _232  and  _235
REMARK   82  A    between atoms: _235  and  _236
REMARK   83  A    between atoms: _236  and  _237
REMARK   84  A    between atoms: _240  and  _242
REMARK   85  A    between atoms: _242  and  _243
REMARK   86  A    between atoms: _242  and  _245
REMARK   87  A    between atoms: _245  and  _246
REMARK   88  A    between atoms: _248  and  _250
REMARK   89  A    between atoms: _250  and  _251
REMARK   90  A    between atoms: _250  and  _253
REMARK   91  A    between atoms: _253  and  _254
REMARK   92  A    between atoms: _257  and  _259
REMARK   93  A    between atoms: _259  and  _260
REMARK   94  A    between atoms: _259  and  _262
REMARK   95  A    between atoms: _264  and  _266
REMARK   96  A    between atoms: _266  and  _267
REMARK   97  A    between atoms: _266  and  _269
REMARK   98  A    between atoms: _269  and  _270
REMARK   99  A    between atoms: _273  and  _275
REMARK  100  A    between atoms: _275  and  _276
REMARK  101  A    between atoms: _275  and  _278
REMARK  102  A    between atoms: _278  and  _279
REMARK  103  A    between atoms: _282  and  _284
REMARK  104  A    between atoms: _284  and  _285
REMARK  105  A    between atoms: _284  and  _287
REMARK  106  A    between atoms: _287  and  _288
REMARK                            x       y       z     vdW  Elec       q    Type
REMARK                         _______ _______ _______ _____ _____    ______ ____
ROOT
ATOM      1  CA  THR A   7      94.141  96.067 -48.235  0.00  0.00    +0.176 C 
ENDROOT
BRANCH   1   2
ATOM      2  C   THR A   7      95.117  95.082 -48.871  0.00  0.00    +0.246 C 
ATOM      3  N   PRO A   8      95.363  93.940 -48.208  0.00  0.00    -0.272 N 
ATOM      4  CD  PRO A   8      95.003  93.664 -46.807  0.00  0.00    +0.094 C 
ATOM      5  CG  PRO A   8      96.066  92.704 -46.373  0.00  0.00    +0.024 C 
ATOM      6  CB  PRO A   8      96.403  91.914 -47.604  0.00  0.00    +0.031 C 
ATOM      7  CA  PRO A   8      96.185  92.871 -48.785  0.00  0.00    +0.152 C 
ATOM      8  O   THR A   7      95.643  95.336 -49.953  0.00  0.00    -0.273 OA
BRANCH   7   9
ATOM      9  C   PRO A   8      95.418  92.151 -49.888  0.00  0.00    +0.244 C 
ATOM     10  O   PRO A   8      94.186  92.241 -49.931  0.00  0.00    -0.273 OA
ATOM     11  N   PRO A   9      96.123  91.408 -50.752  0.00  0.00    -0.272 N 
ATOM     12  CD  PRO A   9      97.585  91.345 -50.902  0.00  0.00    +0.094 C 
ATOM     13  CG  PRO A   9      97.757  90.948 -52.360  0.00  0.00    +0.024 C 
ATOM     14  CB  PRO A   9      96.572  90.092 -52.644  0.00  0.00    +0.031 C 
ATOM     15  CA  PRO A   9      95.423  90.719 -51.840  0.00  0.00    +0.152 C 
BRANCH  15  16
ATOM     16  C   PRO A   9      94.444  89.629 -51.385  0.00  0.00    +0.244 C 
ATOM     17  O   PRO A   9      94.616  89.022 -50.322  0.00  0.00    -0.273 OA
ATOM     18  N   PRO A  10      93.411  89.363 -52.190  0.00  0.00    -0.272 N 
ATOM     19  CA  PRO A  10      92.573  88.189 -51.938  0.00  0.00    +0.152 C 
ATOM     20  CB  PRO A  10      91.679  88.125 -53.184  0.00  0.00    +0.031 C 
ATOM     21  CG  PRO A  10      91.678  89.547 -53.726  0.00  0.00    +0.024 C 
ATOM     22  CD  PRO A  10      93.036  90.082 -53.425  0.00  0.00    +0.094 C 
BRANCH  19  23
ATOM     23  C   PRO A  10      93.453  86.941 -51.867  0.00  0.00    +0.241 C 
ATOM     24  N   GLY A  11      93.187  86.047 -50.918  0.00  0.00    -0.295 N 
ATOM     25  H   GLY A  11      92.376  86.188 -50.282  0.00  0.00    +0.150 HD
ATOM     26  O   PRO A  10      94.377  86.787 -52.665  0.00  0.00    -0.273 OA
BRANCH  24  27
ATOM     27  CA  GLY A  11      94.032  84.872 -50.771  0.00  0.00    +0.176 C 
BRANCH  27  28
ATOM     28  C   GLY A  11      95.039  85.008 -49.636  0.00  0.00    +0.243 C 
ATOM     29  N   THR A  12      95.198  86.222 -49.132  0.00  0.00    -0.295 N 
ATOM     30  H   THR A  12      94.727  87.030 -49.587  0.00  0.00    +0.150 HD
ATOM     31  O   GLY A  11      95.649  84.037 -49.212  0.00  0.00    -0.273 OA
BRANCH  29  32
ATOM     32  CA  THR A  12      96.023  86.446 -47.949  0.00  0.00    +0.176 C 
BRANCH  32  33
ATOM     33  C   THR A  12      95.444  85.671 -46.766  0.00  0.00    +0.243 C 
ATOM     34  N   ARG A  13      96.319  85.143 -45.905  0.00  0.00    -0.297 N 
ATOM     35  H   ARG A  13      97.337  85.280 -46.066  0.00  0.00    +0.150 HD
ATOM     36  O   THR A  12      94.225  85.542 -46.644  0.00  0.00    -0.273 OA
BRANCH  34  37
ATOM     37  CA  ARG A  13      95.874  84.375 -44.738  0.00  0.00    +0.149 C 
BRANCH  37  38
ATOM     38  C   ARG A  13      96.577  84.826 -43.472  0.00  0.00    +0.241 C 
ATOM     39  N   VAL A  14      96.021  84.413 -42.336  0.00  0.00    -0.298 N 
ATOM     40  H   VAL A  14      95.180  83.802 -42.381  0.00  0.00    +0.150 HD
ATOM     41  O   ARG A  13      97.583  85.534 -43.522  0.00  0.00    -0.273 OA
BRANCH  39  42
ATOM     42  CA  VAL A  14      96.551  84.788 -41.030  0.00  0.00    +0.137 C 
BRANCH  42  43
ATOM     43  CB  VAL A  14      95.580  85.720 -40.268  0.00  0.00    +0.026 C 
ATOM     44  CG2 VAL A  14      96.178  86.132 -38.917  0.00  0.00    +0.002 C 
ATOM     45  CG1 VAL A  14      95.259  86.947 -41.109  0.00  0.00    +0.002 C 
ENDBRANCH  42  43
BRANCH  42  46
ATOM     46  C   VAL A  14      96.767  83.515 -40.219  0.00  0.00    +0.227 C 
ATOM     47  O   VAL A  14      95.810  82.768 -39.968  0.00  0.00    -0.286 OA
ENDBRANCH  42  46
ENDBRANCH  39  42
ENDBRANCH  37  38
BRANCH  37  48
ATOM     48  CB  ARG A  13      96.098  82.878 -44.957  0.00  0.00    +0.033 C 
BRANCH  48  49
ATOM     49  CG  ARG A  13      95.351  82.339 -46.165  0.00  0.00    +0.045 C 
BRANCH  49  50
ATOM     50  CD  ARG A  13      95.020  80.858 -45.985  0.00  0.00    +0.174 C 
BRANCH  50  51
ATOM     51  NE  ARG A  13      96.217  80.025 -46.005  0.00  0.00    -0.265 N 
ATOM     52  CZ  ARG A  13      96.193  78.704 -45.846  0.00  0.00    +0.342 C 
ATOM     53  NH2 ARG A  13      95.038  78.092 -45.604  0.00  0.00    -0.292 N 
ATOM     54 HH21 ARG A  13      95.013  77.060 -45.479  0.00  0.00    +0.255 HD
ATOM     55 HH22 ARG A  13      94.160  78.645 -45.540  0.00  0.00    +0.255 HD
ATOM     56  NH1 ARG A  13      97.323  78.014 -45.902  0.00  0.00    -0.292 N 
ATOM     57 HH11 ARG A  13      97.308  76.981 -45.778  0.00  0.00    +0.255 HD
ATOM     58 HH12 ARG A  13      98.224  78.505 -46.070  0.00  0.00    +0.255 HD
ATOM     59  HE  ARG A  13      97.137  80.487 -46.151  0.00  0.00    +0.259 HD
ENDBRANCH  50  51
ENDBRANCH  49  50
ENDBRANCH  48  49
ENDBRANCH  37  48
ENDBRANCH  34  37
ENDBRANCH  32  33
BRANCH  32  60
ATOM     60  CB  THR A  12      96.081  87.954 -47.620  0.00  0.00    +0.137 C 
ATOM     61  CG2 THR A  12      96.939  88.225 -46.396  0.00  0.00    +0.034 C 
BRANCH  60  62
ATOM     62  OG1 THR A  12      96.647  88.658 -48.735  0.00  0.00    -0.382 OA
ATOM     63  HG1 THR A  12      96.083  88.513 -49.536  0.00  0.00    +0.210 HD
ENDBRANCH  60  62
ENDBRANCH  32  60
ENDBRANCH  29  32
ENDBRANCH  27  28
ENDBRANCH  24  27
ENDBRANCH  19  23
ENDBRANCH  15  16
ENDBRANCH   7   9
ENDBRANCH   1   2
BRANCH   1  66
ATOM     64  C   SER A   6      95.623  97.562 -46.997  0.00  0.00    +0.243 C 
ATOM     65  O   SER A   6      96.068  96.655 -46.295  0.00  0.00    -0.273 OA
ATOM     66  N   THR A   7      94.747  97.363 -47.973  0.00  0.00    -0.295 N 
ATOM     67  H   THR A   7      94.482  98.168 -48.576  0.00  0.00    +0.150 HD
BRANCH  64  68
ATOM     68  CA  SER A   6      96.043  99.007 -46.766  0.00  0.00    +0.178 C 
BRANCH  68  71
ATOM     69  C   ASP A   5      96.400 100.294 -44.737  0.00  0.00    +0.241 C 
ATOM     70  O   ASP A   5      95.814 101.271 -45.201  0.00  0.00    -0.273 OA
ATOM     71  N   SER A   6      96.583  99.171 -45.423  0.00  0.00    -0.295 N 
ATOM     72  H   SER A   6      97.123  98.393 -44.992  0.00  0.00    +0.150 HD
BRANCH  69  73
ATOM     73  CA  ASP A   5      96.998 100.345 -43.339  0.00  0.00    +0.160 C 
BRANCH  73  76
ATOM     74  C   VAL A   4      96.042  98.455 -42.120  0.00  0.00    +0.241 C 
ATOM     75  O   VAL A   4      94.983  99.045 -41.906  0.00  0.00    -0.273 OA
ATOM     76  N   ASP A   5      97.079  99.010 -42.738  0.00  0.00    -0.297 N 
ATOM     77  H   ASP A   5      97.973  98.483 -42.797  0.00  0.00    +0.150 HD
BRANCH  74  78
ATOM     78  CA  VAL A   4      96.234  97.019 -41.653  0.00  0.00    +0.149 C 
BRANCH  78  81
ATOM     79  C   TRP A   3      95.802  96.091 -39.439  0.00  0.00    +0.241 C 
ATOM     80  O   TRP A   3      96.926  95.596 -39.363  0.00  0.00    -0.273 OA
ATOM     81  N   VAL A   4      95.358  96.735 -40.516  0.00  0.00    -0.297 N 
ATOM     82  H   VAL A   4      94.365  97.043 -40.550  0.00  0.00    +0.150 HD
BRANCH  79  83
ATOM     83  CA  TRP A   3      94.855  96.019 -38.261  0.00  0.00    +0.153 C 
BRANCH  83  85
ATOM     84  C   LEU A   2      93.824  93.897 -37.587  0.00  0.00    +0.241 C 
ATOM     85  N   TRP A   3      94.897  94.675 -37.694  0.00  0.00    -0.297 N 
ATOM     86  H   TRP A   3      95.810  94.308 -37.357  0.00  0.00    +0.150 HD
ATOM     87  O   LEU A   2      92.697  94.221 -37.970  0.00  0.00    -0.273 OA
BRANCH  84  88
ATOM     88  CA  LEU A   2      94.041  92.540 -36.950  0.00  0.00    +0.149 C 
BRANCH  88  91
ATOM     89  C   GLN A   1      93.413  92.303 -34.594  0.00  0.00    +0.238 C 
ATOM     90  O   GLN A   1      94.585  92.238 -34.210  0.00  0.00    -0.274 OA
ATOM     91  N   LEU A   2      93.066  92.387 -35.876  0.00  0.00    -0.297 N 
ATOM     92  H   LEU A   2      92.057  92.342 -36.123  0.00  0.00    +0.150 HD
BRANCH  89  93
ATOM     93  CA  GLN A   1      92.264  92.334 -33.601  0.00  0.00    +0.145 C 
BRANCH  93  94
ATOM     94  N   GLN A   1      92.540  91.529 -32.424  0.00  0.00    -0.238 NA
ATOM     95  H   GLN A   1      92.924  91.978 -31.568  0.00  0.00    +0.142 HD
ENDBRANCH  93  94
BRANCH  93  96
ATOM     96  CB  GLN A   1      92.027  93.795 -33.202  0.00  0.00    +0.036 C 
BRANCH  96  97
ATOM     97  CG  GLN A   1      90.882  93.989 -32.243  0.00  0.00    +0.087 C 
BRANCH  97  98
ATOM     98  CD  GLN A   1      90.791  95.420 -31.763  0.00  0.00    +0.219 C 
ATOM     99  NE2 GLN A   1      89.594  95.822 -31.357  0.00  0.00    -0.329 N 
ATOM    100 HE21 GLN A   1      89.463  96.791 -31.003  0.00  0.00    +0.145 HD
ATOM    101 HE22 GLN A   1      88.786  95.168 -31.392  0.00  0.00    +0.145 HD
ATOM    102  OE1 GLN A   1      91.781  96.152 -31.743  0.00  0.00    -0.275 OA
ENDBRANCH  97  98
ENDBRANCH  96  97
ENDBRANCH  93  96
ENDBRANCH  89  93
ENDBRANCH  88  91
BRANCH  88 103
ATOM    103  CB  LEU A   2      93.842  91.454 -38.006  0.00  0.00    +0.029 C 
BRANCH 103 104
ATOM    104  CG  LEU A   2      93.727  90.017 -37.504  0.00  0.00    +0.002 C 
ATOM    105  CD2 LEU A   2      94.984  89.605 -36.754  0.00  0.00    +0.000 C 
ATOM    106  CD1 LEU A   2      93.468  89.077 -38.679  0.00  0.00    +0.000 C 
ENDBRANCH 103 104
ENDBRANCH  88 103
ENDBRANCH  84  88
ENDBRANCH  83  85
BRANCH  83 107
ATOM    107  CB  TRP A   3      95.292  97.058 -37.214  0.00  0.00    +0.057 C 
BRANCH 107 108
ATOM    108  CG  TRP A   3      94.318  97.240 -36.104  0.00  0.00    -0.002 A 
ATOM    109  CD1 TRP A   3      94.262  96.538 -34.935  0.00  0.00    +0.068 A 
ATOM    110  NE1 TRP A   3      93.223  96.999 -34.155  0.00  0.00    -0.352 N 
ATOM    111  HE1 TRP A   3      92.964  96.635 -33.216  0.00  0.00    +0.166 HD
ATOM    112  CE2 TRP A   3      92.587  98.015 -34.819  0.00  0.00    +0.056 A 
ATOM    113  CZ2 TRP A   3      91.484  98.775 -34.444  0.00  0.00    +0.017 A 
ATOM    114  CH2 TRP A   3      91.052  99.728 -35.323  0.00  0.00    +0.001 A 
ATOM    115  CZ3 TRP A   3      91.686  99.929 -36.555  0.00  0.00    +0.000 A 
ATOM    116  CE3 TRP A   3      92.786  99.175 -36.929  0.00  0.00    +0.001 A 
ATOM    117  CD2 TRP A   3      93.247  98.191 -36.053  0.00  0.00    +0.013 A 
ENDBRANCH 107 108
ENDBRANCH  83 107
ENDBRANCH  79  83
ENDBRANCH  78  81
BRANCH  78 118
ATOM    118  CB  VAL A   4      95.998  96.064 -42.849  0.00  0.00    +0.027 C 
ATOM    119  CG2 VAL A   4      96.422  94.634 -42.506  0.00  0.00    +0.002 C 
ATOM    120  CG1 VAL A   4      94.544  96.097 -43.294  0.00  0.00    +0.002 C 
ENDBRANCH  78 118
ENDBRANCH  74  78
ENDBRANCH  73  76
BRANCH  73 121
ATOM    121  CB  ASP A   5      98.382 100.981 -43.424  0.00  0.00    +0.143 C 
BRANCH 121 122
ATOM    122  CG  ASP A   5      98.925 101.376 -42.077  0.00  0.00    +0.367 C 
ATOM    123  OD2 ASP A   5      98.118 101.660 -41.170  0.00  0.00    -0.246 OA
ATOM    124  OD1 ASP A   5     100.163 101.415 -41.930  0.00  0.00    -0.246 OA
ENDBRANCH 121 122
ENDBRANCH  73 121
ENDBRANCH  69  73
ENDBRANCH  68  71
BRANCH  68 125
ATOM    125  CB  SER A   6      97.060  99.449 -47.815  0.00  0.00    +0.166 C 
BRANCH 125 126
ATOM    126  OG  SER A   6      98.270  98.735 -47.683  0.00  0.00    -0.380 OA
ATOM    127  H   SER A   6      98.651  98.897 -46.784  0.00  0.00    +0.211 HD
ENDBRANCH 125 126
ENDBRANCH  68 125
ENDBRANCH  64  68
ENDBRANCH   1  66
BRANCH   1 128
ATOM    128  CB  THR A   7      92.941  96.229 -49.191  0.00  0.00    +0.137 C 
ATOM    129  CG2 THR A   7      92.331  94.878 -49.527  0.00  0.00    +0.034 C 
BRANCH 128 130
ATOM    130  OG1 THR A   7      91.950  97.074 -48.587  0.00  0.00    -0.382 OA
ATOM    131  HG1 THR A   7      92.344  97.963 -48.402  0.00  0.00    +0.210 HD
ENDBRANCH 128 130
ENDBRANCH   1 128
TORSDOF 46
REMARK  Name = ../refined-set-2016/5a7b/5a7b_pocket.pdb
REMARK  106 active torsions:
REMARK  status: ('A' for Active; 'I' for Inactive)
REMARK    1  A    between atoms: _1  and  _3
REMARK    2  A    between atoms: _3  and  _4
REMARK    3  A    between atoms: _3  and  _6
REMARK    4  A    between atoms: _6  and  _7
REMARK    5  A    between atoms: _12  and  _13
REMARK    6  A    between atoms: _15  and  _17
REMARK    7  A    between atoms: _17  and  _18
REMARK    8  A    between atoms: _17  and  _20
REMARK    9  A    between atoms: _20  and  _21
REMARK   10  A    between atoms: _27  and  _29
REMARK   11  A    between atoms: _29  and  _30
REMARK   12  A    between atoms: _29  and  _32
REMARK   13  A    between atoms: _32  and  _33
REMARK   14  A    between atoms: _33  and  _34
REMARK   15  A    between atoms: _34  and  _35
REMARK   16  A    between atoms: _44  and  _46
REMARK   17  A    between atoms: _46  and  _47
REMARK   18  A    between atoms: _46  and  _49
REMARK   19  A    between atoms: _49  and  _50
REMARK   20  A    between atoms: _50  and  _51
REMARK   21  A    between atoms: _56  and  _58
REMARK   22  A    between atoms: _58  and  _59
REMARK   23  A    between atoms: _58  and  _61
REMARK   24  A    between atoms: _61  and  _62
REMARK   25  A    between atoms: _65  and  _67
REMARK   26  A    between atoms: _67  and  _68
REMARK   27  A    between atoms: _67  and  _70
REMARK   28  A    between atoms: _70  and  _71
REMARK   29  A    between atoms: _81  and  _83
REMARK   30  A    between atoms: _83  and  _84
REMARK   31  A    between atoms: _83  and  _86
REMARK   32  A    between atoms: _89  and  _91
REMARK   33  A    between atoms: _91  and  _92
REMARK   34  A    between atoms: _91  and  _94
REMARK   35  A    between atoms: _94  and  _95
REMARK   36  A    between atoms: _98  and  _100
REMARK   37  A    between atoms: _100  and  _101
REMARK   38  A    between atoms: _100  and  _103
REMARK   39  A    between atoms: _103  and  _104
REMARK   40  A    between atoms: _106  and  _108
REMARK   41  A    between atoms: _108  and  _109
REMARK   42  A    between atoms: _108  and  _111
REMARK   43  A    between atoms: _111  and  _112
REMARK   44  A    between atoms: _116  and  _117
REMARK   45  A    between atoms: _123  and  _124
REMARK   46  A    between atoms: _130  and  _131
REMARK   47  A    between atoms: _136  and  _138
REMARK   48  A    between atoms: _138  and  _139
REMARK   49  A    between atoms: _141  and  _143
REMARK   50  A    between atoms: _143  and  _144
REMARK   51  A    between atoms: _143  and  _146
REMARK   52  A    between atoms: _146  and  _147
REMARK   53  A    between atoms: _150  and  _152
REMARK   54  A    between atoms: _152  and  _153
REMARK   55  A    between atoms: _152  and  _155
REMARK   56  A    between atoms: _155  and  _156
REMARK   57  A    between atoms: _156  and  _157
REMARK   58  A    between atoms: _157  and  _158
REMARK   59  A    between atoms: _167  and  _169
REMARK   60  A    between atoms: _169  and  _170
REMARK   61  A    between atoms: _169  and  _172
REMARK   62  A    between atoms: _175  and  _177
REMARK   63  A    between atoms: _177  and  _178
REMARK   64  A    between atoms: _177  and  _180
REMARK   65  A    between atoms: _180  and  _181
REMARK   66  A    between atoms: _181  and  _182
REMARK   67  A    between atoms: _182  and  _183
REMARK   68  A    between atoms: _193  and  _194
REMARK   69  A    between atoms: _199  and  _201
REMARK   70  A    between atoms: _201  and  _202
REMARK   71  A    between atoms: _201  and  _204
REMARK   72  A    between atoms: _206  and  _208
REMARK   73  A    between atoms: _208  and  _209
REMARK   74  A    between atoms: _208  and  _211
REMARK   75  A    between atoms: _211  and  _212
REMARK   76  A    between atoms: _212  and  _213
REMARK   77  A    between atoms: _217  and  _218
REMARK   78  A    between atoms: _224  and  _225
REMARK   79  A    between atoms: _230  and  _232
REMARK   80  A    between atoms: _232  and  _233
REMARK   81  A    between atoms: _232  and  _235
REMARK   82  A    between atoms: _235  and  _236
REMARK   83  A    between atoms: _236  and  _237
REMARK   84  A    between atoms: _240  and  _242
REMARK   85  A    between atoms: _242  and  _243
REMARK   86  A    between atoms: _242  and  _245
REMARK   87  A    between atoms: _245  and  _246
REMARK   88  A    between atoms: _248  and  _250
REMARK   89  A    between atoms: _250  and  _251
REMARK   90  A    between atoms: _250  and  _253
REMARK   91  A    between atoms: _253  and  _254
REMARK   92  A    between atoms: _257  and  _259
REMARK   93  A    between atoms: _259  and  _260
REMARK   94  A    between atoms: _259  and  _262
REMARK   95  A    between atoms: _264  and  _266
REMARK   96  A    between atoms: _266  and  _267
REMARK   97  A    between atoms: _266  and  _269
REMARK   98  A    between atoms: _269  and  _270
REMARK   99  A    between atoms: _273  and  _275
REMARK  100  A    between atoms: _275  and  _276
REMARK  101  A    between atoms: _275  and  _278
REMARK  102  A    between atoms: _278  and  _279
REMARK  103  A    between atoms: _282  and  _284
REMARK  104  A    between atoms: _284  and  _285
REMARK  105  A    between atoms: _284  and  _287
REMARK  106  A    between atoms: _287  and  _288
REMARK                            x       y       z     vdW  Elec       q    Type
REMARK                         _______ _______ _______ _____ _____    ______ ____
ROOT
ATOM      1  NE  ARG A   1      86.016  81.488 -45.386  0.00  0.00    -0.265 N 
ATOM      2  HE  ARG A   1      85.606  81.501 -44.430  0.00  0.00    +0.259 HD
ATOM      3  CZ  ARG A   1      86.241  82.653 -45.980  0.00  0.00    +0.342 C 
ATOM      4  NH2 ARG A   1      85.940  83.777 -45.349  0.00  0.00    -0.292 N 
ATOM      5 HH21 ARG A   1      85.530  83.743 -44.394  0.00  0.00    +0.255 HD
ATOM      6 HH22 ARG A   1      86.114  84.694 -45.808  0.00  0.00    +0.255 HD
ATOM      7  NH1 ARG A   1      86.771  82.693 -47.195  0.00  0.00    -0.292 N 
ATOM      8 HH11 ARG A   1      86.945  83.609 -47.656  0.00  0.00    +0.255 HD
ATOM      9 HH12 ARG A   1      87.012  81.809 -47.686  0.00  0.00    +0.255 HD
ENDROOT
BRANCH   1  10
ATOM     10  CD  ARG A   1      86.305  80.194 -45.984  0.00  0.00    +0.174 C 
BRANCH  10  11
ATOM     11  CG  ARG A   1      86.244  79.098 -44.945  0.00  0.00    +0.045 C 
BRANCH  11  12
ATOM     12  CB  ARG A   1      87.391  79.222 -43.944  0.00  0.00    +0.029 C 
BRANCH  12  13
ATOM     13  CA  ARG A   1      87.463  78.033 -42.992  0.00  0.00    +0.133 C 
BRANCH  13  14
ATOM     14  N   ARG A   1      86.362  78.063 -42.045  0.00  0.00    -0.239 NA
ATOM     15  H   ARG A   1      86.080  78.968 -41.617  0.00  0.00    +0.142 HD
ENDBRANCH  13  14
BRANCH  13  16
ATOM     16  C   ARG A   1      88.834  77.956 -42.317  0.00  0.00    +0.224 C 
ATOM     17  O   ARG A   1      89.864  78.035 -42.982  0.00  0.00    -0.287 OA
ENDBRANCH  13  16
ENDBRANCH  12  13
ENDBRANCH  11  12
ENDBRANCH  10  11
ENDBRANCH   1  10
TORSDOF 6
REMARK  Name = ../refined-set-2016/5a7b/5a7b_pocket.pdb
REMARK  106 active torsions:
REMARK  status: ('A' for Active; 'I' for Inactive)
REMARK    1  A    between atoms: _1  and  _3
REMARK    2  A    between atoms: _3  and  _4
REMARK    3  A    between atoms: _3  and  _6
REMARK    4  A    between atoms: _6  and  _7
REMARK    5  A    between atoms: _12  and  _13
REMARK    6  A    between atoms: _15  and  _17
REMARK    7  A    between atoms: _17  and  _18
REMARK    8  A    between atoms: _17  and  _20
REMARK    9  A    between atoms: _20  and  _21
REMARK   10  A    between atoms: _27  and  _29
REMARK   11  A    between atoms: _29  and  _30
REMARK   12  A    between atoms: _29  and  _32
REMARK   13  A    between atoms: _32  and  _33
REMARK   14  A    between atoms: _33  and  _34
REMARK   15  A    between atoms: _34  and  _35
REMARK   16  A    between atoms: _44  and  _46
REMARK   17  A    between atoms: _46  and  _47
REMARK   18  A    between atoms: _46  and  _49
REMARK   19  A    between atoms: _49  and  _50
REMARK   20  A    between atoms: _50  and  _51
REMARK   21  A    between atoms: _56  and  _58
REMARK   22  A    between atoms: _58  and  _59
REMARK   23  A    between atoms: _58  and  _61
REMARK   24  A    between atoms: _61  and  _62
REMARK   25  A    between atoms: _65  and  _67
REMARK   26  A    between atoms: _67  and  _68
REMARK   27  A    between atoms: _67  and  _70
REMARK   28  A    between atoms: _70  and  _71
REMARK   29  A    between atoms: _81  and  _83
REMARK   30  A    between atoms: _83  and  _84
REMARK   31  A    between atoms: _83  and  _86
REMARK   32  A    between atoms: _89  and  _91
REMARK   33  A    between atoms: _91  and  _92
REMARK   34  A    between atoms: _91  and  _94
REMARK   35  A    between atoms: _94  and  _95
REMARK   36  A    between atoms: _98  and  _100
REMARK   37  A    between atoms: _100  and  _101
REMARK   38  A    between atoms: _100  and  _103
REMARK   39  A    between atoms: _103  and  _104
REMARK   40  A    between atoms: _106  and  _108
REMARK   41  A    between atoms: _108  and  _109
REMARK   42  A    between atoms: _108  and  _111
REMARK   43  A    between atoms: _111  and  _112
REMARK   44  A    between atoms: _116  and  _117
REMARK   45  A    between atoms: _123  and  _124
REMARK   46  A    between atoms: _130  and  _131
REMARK   47  A    between atoms: _136  and  _138
REMARK   48  A    between atoms: _138  and  _139
REMARK   49  A    between atoms: _141  and  _143
REMARK   50  A    between atoms: _143  and  _144
REMARK   51  A    between atoms: _143  and  _146
REMARK   52  A    between atoms: _146  and  _147
REMARK   53  A    between atoms: _150  and  _152
REMARK   54  A    between atoms: _152  and  _153
REMARK   55  A    between atoms: _152  and  _155
REMARK   56  A    between atoms: _155  and  _156
REMARK   57  A    between atoms: _156  and  _157
REMARK   58  A    between atoms: _157  and  _158
REMARK   59  A    between atoms: _167  and  _169
REMARK   60  A    between atoms: _169  and  _170
REMARK   61  A    between atoms: _169  and  _172
REMARK   62  A    between atoms: _175  and  _177
REMARK   63  A    between atoms: _177  and  _178
REMARK   64  A    between atoms: _177  and  _180
REMARK   65  A    between atoms: _180  and  _181
REMARK   66  A    between atoms: _181  and  _182
REMARK   67  A    between atoms: _182  and  _183
REMARK   68  A    between atoms: _193  and  _194
REMARK   69  A    between atoms: _199  and  _201
REMARK   70  A    between atoms: _201  and  _202
REMARK   71  A    between atoms: _201  and  _204
REMARK   72  A    between atoms: _206  and  _208
REMARK   73  A    between atoms: _208  and  _209
REMARK   74  A    between atoms: _208  and  _211
REMARK   75  A    between atoms: _211  and  _212
REMARK   76  A    between atoms: _212  and  _213
REMARK   77  A    between atoms: _217  and  _218
REMARK   78  A    between atoms: _224  and  _225
REMARK   79  A    between atoms: _230  and  _232
REMARK   80  A    between atoms: _232  and  _233
REMARK   81  A    between atoms: _232  and  _235
REMARK   82  A    between atoms: _235  and  _236
REMARK   83  A    between atoms: _236  and  _237
REMARK   84  A    between atoms: _240  and  _242
REMARK   85  A    between atoms: _242  and  _243
REMARK   86  A    between atoms: _242  and  _245
REMARK   87  A    between atoms: _245  and  _246
REMARK   88  A    between atoms: _248  and  _250
REMARK   89  A    between atoms: _250  and  _251
REMARK   90  A    between atoms: _250  and  _253
REMARK   91  A    between atoms: _253  and  _254
REMARK   92  A    between atoms: _257  and  _259
REMARK   93  A    between atoms: _259  and  _260
REMARK   94  A    between atoms: _259  and  _262
REMARK   95  A    between atoms: _264  and  _266
REMARK   96  A    between atoms: _266  and  _267
REMARK   97  A    between atoms: _266  and  _269
REMARK   98  A    between atoms: _269  and  _270
REMARK   99  A    between atoms: _273  and  _275
REMARK  100  A    between atoms: _275  and  _276
REMARK  101  A    between atoms: _275  and  _278
REMARK  102  A    between atoms: _278  and  _279
REMARK  103  A    between atoms: _282  and  _284
REMARK  104  A    between atoms: _284  and  _285
REMARK  105  A    between atoms: _284  and  _287
REMARK  106  A    between atoms: _287  and  _288
REMARK                            x       y       z     vdW  Elec       q    Type
REMARK                         _______ _______ _______ _____ _____    ______ ____
ROOT
ATOM      1  C   GLU A   3      88.831  90.577 -44.637  0.00  0.00    +0.244 C 
ATOM      2  O   GLU A   3      89.106  90.821 -43.462  0.00  0.00    -0.273 OA
ATOM      3  N   PRO A   4      88.270  91.485 -45.454  0.00  0.00    -0.272 N 
ATOM      4  CA  PRO A   4      87.938  92.845 -45.006  0.00  0.00    +0.152 C 
ATOM      5  CB  PRO A   4      87.319  93.480 -46.257  0.00  0.00    +0.031 C 
ATOM      6  CG  PRO A   4      87.857  92.680 -47.399  0.00  0.00    +0.024 C 
ATOM      7  CD  PRO A   4      87.967  91.281 -46.881  0.00  0.00    +0.094 C 
ENDROOT
BRANCH   4   8
ATOM      8  C   PRO A   4      86.942  92.872 -43.851  0.00  0.00    +0.244 C 
ATOM      9  N   PRO A   5      87.019  93.913 -43.013  0.00  0.00    -0.272 N 
ATOM     10  CA  PRO A   5      86.085  94.114 -41.899  0.00  0.00    +0.152 C 
ATOM     11  CB  PRO A   5      86.537  95.452 -41.304  0.00  0.00    +0.031 C 
ATOM     12  CG  PRO A   5      87.966  95.581 -41.693  0.00  0.00    +0.024 C 
ATOM     13  CD  PRO A   5      88.081  94.930 -43.040  0.00  0.00    +0.094 C 
ATOM     14  O   PRO A   4      86.128  91.959 -43.717  0.00  0.00    -0.273 OA
BRANCH  10  15
ATOM     15  C   PRO A   5      84.631  94.220 -42.358  0.00  0.00    +0.241 C 
ATOM     16  N   GLU A   6      83.704  93.936 -41.448  0.00  0.00    -0.298 N 
ATOM     17  H   GLU A   6      83.999  93.542 -40.532  0.00  0.00    +0.150 HD
ATOM     18  O   PRO A   5      84.364  94.548 -43.512  0.00  0.00    -0.273 OA
BRANCH  16  19
ATOM     19  CA  GLU A   6      82.287  94.161 -41.699  0.00  0.00    +0.137 C 
BRANCH  19  20
ATOM     20  C   GLU A   6      82.063  95.658 -41.869  0.00  0.00    +0.227 C 
ATOM     21  O   GLU A   6      82.811  96.468 -41.319  0.00  0.00    -0.286 OA
ENDBRANCH  19  20
BRANCH  19  22
ATOM     22  CB  GLU A   6      81.455  93.658 -40.518  0.00  0.00    +0.039 C 
BRANCH  22  23
ATOM     23  CG  GLU A   6      81.618  92.177 -40.205  0.00  0.00    +0.116 C 
BRANCH  23  24
ATOM     24  CD  GLU A   6      80.826  91.291 -41.147  0.00  0.00    +0.365 C 
ATOM     25  OE2 GLU A   6      80.797  90.062 -40.927  0.00  0.00    -0.246 OA
ATOM     26  OE1 GLU A   6      80.232  91.823 -42.108  0.00  0.00    -0.246 OA
ENDBRANCH  23  24
ENDBRANCH  22  23
ENDBRANCH  19  22
ENDBRANCH  16  19
ENDBRANCH  10  15
ENDBRANCH   4   8
BRANCH   1  27
ATOM     27  CA  GLU A   3      89.151  89.210 -45.241  0.00  0.00    +0.149 C 
BRANCH  27  29
ATOM     28  C   CYS A   2      91.247  87.992 -45.073  0.00  0.00    +0.242 C 
ATOM     29  N   GLU A   3      90.184  88.520 -44.475  0.00  0.00    -0.297 N 
ATOM     30  H   GLU A   3      90.087  88.440 -43.443  0.00  0.00    +0.150 HD
ATOM     31  O   CYS A   2      91.407  88.000 -46.294  0.00  0.00    -0.273 OA
BRANCH  28  32
ATOM     32  CA  CYS A   2      92.283  87.335 -44.165  0.00  0.00    +0.160 C 
BRANCH  32  35
ATOM     33  C   PRO A   1      91.568  85.015 -43.963  0.00  0.00    +0.239 C 
ATOM     34  O   PRO A   1      90.879  85.236 -42.960  0.00  0.00    -0.274 OA
ATOM     35  N   CYS A   2      92.350  85.925 -44.528  0.00  0.00    -0.296 N 
ATOM     36  H   CYS A   2      93.032  85.623 -45.253  0.00  0.00    +0.150 HD
BRANCH  33  41
ATOM     37  N   PRO A   1      91.512  82.585 -43.558  0.00  0.00    -0.210 NA
ATOM     38  CD  PRO A   1      90.343  81.708 -43.737  0.00  0.00    +0.089 C 
ATOM     39  CG  PRO A   1      89.949  81.970 -45.176  0.00  0.00    +0.021 C 
ATOM     40  CB  PRO A   1      90.297  83.413 -45.387  0.00  0.00    +0.028 C 
ATOM     41  CA  PRO A   1      91.586  83.629 -44.586  0.00  0.00    +0.149 C 
ENDBRANCH  33  41
ENDBRANCH  32  35
BRANCH  32  42
ATOM     42  CB  CYS A   2      93.647  87.993 -44.373  0.00  0.00    +0.098 C 
ATOM     43  SG  CYS A   2      93.688  89.759 -44.038  0.00  0.00    -0.080 S 
ENDBRANCH  32  42
ENDBRANCH  28  32
ENDBRANCH  27  29
BRANCH  27  44
ATOM     44  CB  GLU A   3      87.889  88.355 -45.334  0.00  0.00    +0.041 C 
BRANCH  44  45
ATOM     45  CG  GLU A   3      87.867  87.418 -46.533  0.00  0.00    +0.116 C 
BRANCH  45  46
ATOM     46  CD  GLU A   3      86.683  86.471 -46.516  0.00  0.00    +0.365 C 
ATOM     47  OE2 GLU A   3      86.011  86.381 -45.468  0.00  0.00    -0.246 OA
ATOM     48  OE1 GLU A   3      86.427  85.816 -47.548  0.00  0.00    -0.246 OA
ENDBRANCH  45  46
ENDBRANCH  44  45
ENDBRANCH  27  44
ENDBRANCH   1  27
TORSDOF 16
REMARK  Name = ../refined-set-2016/5a7b/5a7b_pocket.pdb
REMARK  106 active torsions:
REMARK  status: ('A' for Active; 'I' for Inactive)
REMARK    1  A    between atoms: _1  and  _3
REMARK    2  A    between atoms: _3  and  _4
REMARK    3  A    between atoms: _3  and  _6
REMARK    4  A    between atoms: _6  and  _7
REMARK    5  A    between atoms: _12  and  _13
REMARK    6  A    between atoms: _15  and  _17
REMARK    7  A    between atoms: _17  and  _18
REMARK    8  A    between atoms: _17  and  _20
REMARK    9  A    between atoms: _20  and  _21
REMARK   10  A    between atoms: _27  and  _29
REMARK   11  A    between atoms: _29  and  _30
REMARK   12  A    between atoms: _29  and  _32
REMARK   13  A    between atoms: _32  and  _33
REMARK   14  A    between atoms: _33  and  _34
REMARK   15  A    between atoms: _34  and  _35
REMARK   16  A    between atoms: _44  and  _46
REMARK   17  A    between atoms: _46  and  _47
REMARK   18  A    between atoms: _46  and  _49
REMARK   19  A    between atoms: _49  and  _50
REMARK   20  A    between atoms: _50  and  _51
REMARK   21  A    between atoms: _56  and  _58
REMARK   22  A    between atoms: _58  and  _59
REMARK   23  A    between atoms: _58  and  _61
REMARK   24  A    between atoms: _61  and  _62
REMARK   25  A    between atoms: _65  and  _67
REMARK   26  A    between atoms: _67  and  _68
REMARK   27  A    between atoms: _67  and  _70
REMARK   28  A    between atoms: _70  and  _71
REMARK   29  A    between atoms: _81  and  _83
REMARK   30  A    between atoms: _83  and  _84
REMARK   31  A    between atoms: _83  and  _86
REMARK   32  A    between atoms: _89  and  _91
REMARK   33  A    between atoms: _91  and  _92
REMARK   34  A    between atoms: _91  and  _94
REMARK   35  A    between atoms: _94  and  _95
REMARK   36  A    between atoms: _98  and  _100
REMARK   37  A    between atoms: _100  and  _101
REMARK   38  A    between atoms: _100  and  _103
REMARK   39  A    between atoms: _103  and  _104
REMARK   40  A    between atoms: _106  and  _108
REMARK   41  A    between atoms: _108  and  _109
REMARK   42  A    between atoms: _108  and  _111
REMARK   43  A    between atoms: _111  and  _112
REMARK   44  A    between atoms: _116  and  _117
REMARK   45  A    between atoms: _123  and  _124
REMARK   46  A    between atoms: _130  and  _131
REMARK   47  A    between atoms: _136  and  _138
REMARK   48  A    between atoms: _138  and  _139
REMARK   49  A    between atoms: _141  and  _143
REMARK   50  A    between atoms: _143  and  _144
REMARK   51  A    between atoms: _143  and  _146
REMARK   52  A    between atoms: _146  and  _147
REMARK   53  A    between atoms: _150  and  _152
REMARK   54  A    between atoms: _152  and  _153
REMARK   55  A    between atoms: _152  and  _155
REMARK   56  A    between atoms: _155  and  _156
REMARK   57  A    between atoms: _156  and  _157
REMARK   58  A    between atoms: _157  and  _158
REMARK   59  A    between atoms: _167  and  _169
REMARK   60  A    between atoms: _169  and  _170
REMARK   61  A    between atoms: _169  and  _172
REMARK   62  A    between atoms: _175  and  _177
REMARK   63  A    between atoms: _177  and  _178
REMARK   64  A    between atoms: _177  and  _180
REMARK   65  A    between atoms: _180  and  _181
REMARK   66  A    between atoms: _181  and  _182
REMARK   67  A    between atoms: _182  and  _183
REMARK   68  A    between atoms: _193  and  _194
REMARK   69  A    between atoms: _199  and  _201
REMARK   70  A    between atoms: _201  and  _202
REMARK   71  A    between atoms: _201  and  _204
REMARK   72  A    between atoms: _206  and  _208
REMARK   73  A    between atoms: _208  and  _209
REMARK   74  A    between atoms: _208  and  _211
REMARK   75  A    between atoms: _211  and  _212
REMARK   76  A    between atoms: _212  and  _213
REMARK   77  A    between atoms: _217  and  _218
REMARK   78  A    between atoms: _224  and  _225
REMARK   79  A    between atoms: _230  and  _232
REMARK   80  A    between atoms: _232  and  _233
REMARK   81  A    between atoms: _232  and  _235
REMARK   82  A    between atoms: _235  and  _236
REMARK   83  A    between atoms: _236  and  _237
REMARK   84  A    between atoms: _240  and  _242
REMARK   85  A    between atoms: _242  and  _243
REMARK   86  A    between atoms: _242  and  _245
REMARK   87  A    between atoms: _245  and  _246
REMARK   88  A    between atoms: _248  and  _250
REMARK   89  A    between atoms: _250  and  _251
REMARK   90  A    between atoms: _250  and  _253
REMARK   91  A    between atoms: _253  and  _254
REMARK   92  A    between atoms: _257  and  _259
REMARK   93  A    between atoms: _259  and  _260
REMARK   94  A    between atoms: _259  and  _262
REMARK   95  A    between atoms: _264  and  _266
REMARK   96  A    between atoms: _266  and  _267
REMARK   97  A    between atoms: _266  and  _269
REMARK   98  A    between atoms: _269  and  _270
REMARK   99  A    between atoms: _273  and  _275
REMARK  100  A    between atoms: _275  and  _276
REMARK  101  A    between atoms: _275  and  _278
REMARK  102  A    between atoms: _278  and  _279
REMARK  103  A    between atoms: _282  and  _284
REMARK  104  A    between atoms: _284  and  _285
REMARK  105  A    between atoms: _284  and  _287
REMARK  106  A    between atoms: _287  and  _288
REMARK                            x       y       z     vdW  Elec       q    Type
REMARK                         _______ _______ _______ _____ _____    ______ ____
ROOT
ATOM      1  CA  CYS A   3      89.516  96.037 -38.156  0.00  0.00    +0.160 C 
ENDROOT
BRANCH   1   3
ATOM      2  C   ASP A   2      88.921  98.252 -38.950  0.00  0.00    +0.241 C 
ATOM      3  N   CYS A   3      88.585  97.147 -38.291  0.00  0.00    -0.296 N 
ATOM      4  H   CYS A   3      87.639  97.075 -37.864  0.00  0.00    +0.150 HD
ATOM      5  O   ASP A   2      90.039  98.430 -39.443  0.00  0.00    -0.273 OA
BRANCH   2   6
ATOM      6  CA  ASP A   2      87.853  99.336 -39.044  0.00  0.00    +0.160 C 
BRANCH   6   8
ATOM      7  C   SER A   1      85.538  98.614 -39.299  0.00  0.00    +0.241 C 
ATOM      8  N   ASP A   2      86.567  98.904 -38.515  0.00  0.00    -0.297 N 
ATOM      9  H   ASP A   2      86.452  98.820 -37.485  0.00  0.00    +0.150 HD
ATOM     10  O   SER A   1      85.601  98.624 -40.528  0.00  0.00    -0.274 OA
BRANCH   7  11
ATOM     11  CA  SER A   1      84.249  98.236 -38.578  0.00  0.00    +0.174 C 
BRANCH  11  12
ATOM     12  N   SER A   1      83.067  98.584 -39.356  0.00  0.00    -0.236 NA
ATOM     13  H   SER A   1      82.824  98.021 -40.196  0.00  0.00    +0.142 HD
ENDBRANCH  11  12
BRANCH  11  14
ATOM     14  CB  SER A   1      84.256  96.743 -38.237  0.00  0.00    +0.163 C 
BRANCH  14  15
ATOM     15  OG  SER A   1      83.251  96.432 -37.284  0.00  0.00    -0.380 OA
ATOM     16  H   SER A   1      83.278  95.463 -37.082  0.00  0.00    +0.211 HD
ENDBRANCH  14  15
ENDBRANCH  11  14
ENDBRANCH   7  11
ENDBRANCH   6   8
BRANCH   6  17
ATOM     17  CB  ASP A   2      88.320 100.579 -38.294  0.00  0.00    +0.143 C 
BRANCH  17  18
ATOM     18  CG  ASP A   2      87.374 101.751 -38.474  0.00  0.00    +0.367 C 
ATOM     19  OD2 ASP A   2      87.099 102.446 -37.477  0.00  0.00    -0.246 OA
ATOM     20  OD1 ASP A   2      86.906 101.962 -39.613  0.00  0.00    -0.246 OA
ENDBRANCH  17  18
ENDBRANCH   6  17
ENDBRANCH   2   6
ENDBRANCH   1   3
BRANCH   1  21
ATOM     21  C   CYS A   3      88.737  94.742 -38.161  0.00  0.00    +0.242 C 
ATOM     22  O   CYS A   3      87.511  94.737 -38.114  0.00  0.00    -0.273 OA
ATOM     23  N   THR A   4      89.455  93.634 -38.248  0.00  0.00    -0.295 N 
ATOM     24  H   THR A   4      90.479  93.692 -38.420  0.00  0.00    +0.150 HD
BRANCH  23  25
ATOM     25  CA  THR A   4      88.818  92.339 -38.104  0.00  0.00    +0.176 C 
BRANCH  25  26
ATOM     26  C   THR A   4      89.290  91.708 -36.805  0.00  0.00    +0.243 C 
ATOM     27  O   THR A   4      90.329  92.085 -36.262  0.00  0.00    -0.273 OA
ATOM     28  N   THR A   5      88.497  90.787 -36.279  0.00  0.00    -0.296 N 
ATOM     29  H   THR A   5      87.623  90.522 -36.776  0.00  0.00    +0.150 HD
BRANCH  28  30
ATOM     30  CA  THR A   5      88.826  90.139 -35.018  0.00  0.00    +0.164 C 
BRANCH  30  31
ATOM     31  C   THR A   5      88.796  88.636 -35.208  0.00  0.00    +0.229 C 
ATOM     32  O   THR A   5      87.858  88.099 -35.808  0.00  0.00    -0.286 OA
ENDBRANCH  30  31
BRANCH  30  33
ATOM     33  CB  THR A   5      87.841  90.537 -33.915  0.00  0.00    +0.136 C 
ATOM     34  CG2 THR A   5      88.210  89.881 -32.584  0.00  0.00    +0.034 C 
BRANCH  33  35
ATOM     35  OG1 THR A   5      87.863  91.962 -33.757  0.00  0.00    -0.382 OA
ATOM     36  HG1 THR A   5      87.600  92.391 -34.609  0.00  0.00    +0.210 HD
ENDBRANCH  33  35
ENDBRANCH  30  33
ENDBRANCH  28  30
ENDBRANCH  25  26
BRANCH  25  37
ATOM     37  CB  THR A   4      89.122  91.431 -39.288  0.00  0.00    +0.137 C 
ATOM     38  CG2 THR A   4      88.610  92.078 -40.577  0.00  0.00    +0.034 C 
BRANCH  37  39
ATOM     39  OG1 THR A   4      90.533  91.244 -39.382  0.00  0.00    -0.382 OA
ATOM     40  HG1 THR A   4      90.736  90.654 -40.151  0.00  0.00    +0.210 HD
ENDBRANCH  37  39
ENDBRANCH  25  37
ENDBRANCH  23  25
ENDBRANCH   1  21
BRANCH   1  41
ATOM     41  CB  CYS A   3      90.335  96.159 -36.857  0.00  0.00    +0.098 C 
ATOM     42  SG  CYS A   3      89.419  95.889 -35.324  0.00  0.00    -0.080 S 
ENDBRANCH   1  41
TORSDOF 19
REMARK  Name = ../refined-set-2016/5a7b/5a7b_pocket.pdb
REMARK  106 active torsions:
REMARK  status: ('A' for Active; 'I' for Inactive)
REMARK    1  A    between atoms: _1  and  _3
REMARK    2  A    between atoms: _3  and  _4
REMARK    3  A    between atoms: _3  and  _6
REMARK    4  A    between atoms: _6  and  _7
REMARK    5  A    between atoms: _12  and  _13
REMARK    6  A    between atoms: _15  and  _17
REMARK    7  A    between atoms: _17  and  _18
REMARK    8  A    between atoms: _17  and  _20
REMARK    9  A    between atoms: _20  and  _21
REMARK   10  A    between atoms: _27  and  _29
REMARK   11  A    between atoms: _29  and  _30
REMARK   12  A    between atoms: _29  and  _32
REMARK   13  A    between atoms: _32  and  _33
REMARK   14  A    between atoms: _33  and  _34
REMARK   15  A    between atoms: _34  and  _35
REMARK   16  A    between atoms: _44  and  _46
REMARK   17  A    between atoms: _46  and  _47
REMARK   18  A    between atoms: _46  and  _49
REMARK   19  A    between atoms: _49  and  _50
REMARK   20  A    between atoms: _50  and  _51
REMARK   21  A    between atoms: _56  and  _58
REMARK   22  A    between atoms: _58  and  _59
REMARK   23  A    between atoms: _58  and  _61
REMARK   24  A    between atoms: _61  and  _62
REMARK   25  A    between atoms: _65  and  _67
REMARK   26  A    between atoms: _67  and  _68
REMARK   27  A    between atoms: _67  and  _70
REMARK   28  A    between atoms: _70  and  _71
REMARK   29  A    between atoms: _81  and  _83
REMARK   30  A    between atoms: _83  and  _84
REMARK   31  A    between atoms: _83  and  _86
REMARK   32  A    between atoms: _89  and  _91
REMARK   33  A    between atoms: _91  and  _92
REMARK   34  A    between atoms: _91  and  _94
REMARK   35  A    between atoms: _94  and  _95
REMARK   36  A    between atoms: _98  and  _100
REMARK   37  A    between atoms: _100  and  _101
REMARK   38  A    between atoms: _100  and  _103
REMARK   39  A    between atoms: _103  and  _104
REMARK   40  A    between atoms: _106  and  _108
REMARK   41  A    between atoms: _108  and  _109
REMARK   42  A    between atoms: _108  and  _111
REMARK   43  A    between atoms: _111  and  _112
REMARK   44  A    between atoms: _116  and  _117
REMARK   45  A    between atoms: _123  and  _124
REMARK   46  A    between atoms: _130  and  _131
REMARK   47  A    between atoms: _136  and  _138
REMARK   48  A    between atoms: _138  and  _139
REMARK   49  A    between atoms: _141  and  _143
REMARK   50  A    between atoms: _143  and  _144
REMARK   51  A    between atoms: _143  and  _146
REMARK   52  A    between atoms: _146  and  _147
REMARK   53  A    between atoms: _150  and  _152
REMARK   54  A    between atoms: _152  and  _153
REMARK   55  A    between atoms: _152  and  _155
REMARK   56  A    between atoms: _155  and  _156
REMARK   57  A    between atoms: _156  and  _157
REMARK   58  A    between atoms: _157  and  _158
REMARK   59  A    between atoms: _167  and  _169
REMARK   60  A    between atoms: _169  and  _170
REMARK   61  A    between atoms: _169  and  _172
REMARK   62  A    between atoms: _175  and  _177
REMARK   63  A    between atoms: _177  and  _178
REMARK   64  A    between atoms: _177  and  _180
REMARK   65  A    between atoms: _180  and  _181
REMARK   66  A    between atoms: _181  and  _182
REMARK   67  A    between atoms: _182  and  _183
REMARK   68  A    between atoms: _193  and  _194
REMARK   69  A    between atoms: _199  and  _201
REMARK   70  A    between atoms: _201  and  _202
REMARK   71  A    between atoms: _201  and  _204
REMARK   72  A    between atoms: _206  and  _208
REMARK   73  A    between atoms: _208  and  _209
REMARK   74  A    between atoms: _208  and  _211
REMARK   75  A    between atoms: _211  and  _212
REMARK   76  A    between atoms: _212  and  _213
REMARK   77  A    between atoms: _217  and  _218
REMARK   78  A    between atoms: _224  and  _225
REMARK   79  A    between atoms: _230  and  _232
REMARK   80  A    between atoms: _232  and  _233
REMARK   81  A    between atoms: _232  and  _235
REMARK   82  A    between atoms: _235  and  _236
REMARK   83  A    between atoms: _236  and  _237
REMARK   84  A    between atoms: _240  and  _242
REMARK   85  A    between atoms: _242  and  _243
REMARK   86  A    between atoms: _242  and  _245
REMARK   87  A    between atoms: _245  and  _246
REMARK   88  A    between atoms: _248  and  _250
REMARK   89  A    between atoms: _250  and  _251
REMARK   90  A    between atoms: _250  and  _253
REMARK   91  A    between atoms: _253  and  _254
REMARK   92  A    between atoms: _257  and  _259
REMARK   93  A    between atoms: _259  and  _260
REMARK   94  A    between atoms: _259  and  _262
REMARK   95  A    between atoms: _264  and  _266
REMARK   96  A    between atoms: _266  and  _267
REMARK   97  A    between atoms: _266  and  _269
REMARK   98  A    between atoms: _269  and  _270
REMARK   99  A    between atoms: _273  and  _275
REMARK  100  A    between atoms: _275  and  _276
REMARK  101  A    between atoms: _275  and  _278
REMARK  102  A    between atoms: _278  and  _279
REMARK  103  A    between atoms: _282  and  _284
REMARK  104  A    between atoms: _284  and  _285
REMARK  105  A    between atoms: _284  and  _287
REMARK  106  A    between atoms: _287  and  _288
REMARK                            x       y       z     vdW  Elec       q    Type
REMARK                         _______ _______ _______ _____ _____    ______ ____
ROOT
ATOM      1  CA  LEU A   1     100.137  87.529 -42.310  0.00  0.00    +0.133 C 
ENDROOT
BRANCH   1   2
ATOM      2  N   LEU A   1     100.935  87.243 -41.136  0.00  0.00    -0.239 NA
ATOM      3  H   LEU A   1     101.673  87.919 -40.855  0.00  0.00    +0.142 HD
ENDBRANCH   1   2
BRANCH   1   4
ATOM      4  C   LEU A   1     100.915  86.911 -43.477  0.00  0.00    +0.224 C 
ATOM      5  O   LEU A   1     102.112  87.180 -43.624  0.00  0.00    -0.287 OA
ENDBRANCH   1   4
BRANCH   1   6
ATOM      6  CB  LEU A   1     100.038  89.041 -42.500  0.00  0.00    +0.025 C 
BRANCH   6   7
ATOM      7  CG  LEU A   1      99.052  89.492 -43.570  0.00  0.00    +0.002 C 
ATOM      8  CD2 LEU A   1      97.632  89.217 -43.121  0.00  0.00    +0.000 C 
ATOM      9  CD1 LEU A   1      99.219  90.968 -43.863  0.00  0.00    +0.000 C 
ENDBRANCH   6   7
ENDBRANCH   1   6
TORSDOF 4
REMARK  Name = ../refined-set-2016/5a7b/5a7b_pocket.pdb
REMARK  106 active torsions:
REMARK  status: ('A' for Active; 'I' for Inactive)
REMARK    1  A    between atoms: _1  and  _3
REMARK    2  A    between atoms: _3  and  _4
REMARK    3  A    between atoms: _3  and  _6
REMARK    4  A    between atoms: _6  and  _7
REMARK    5  A    between atoms: _12  and  _13
REMARK    6  A    between atoms: _15  and  _17
REMARK    7  A    between atoms: _17  and  _18
REMARK    8  A    between atoms: _17  and  _20
REMARK    9  A    between atoms: _20  and  _21
REMARK   10  A    between atoms: _27  and  _29
REMARK   11  A    between atoms: _29  and  _30
REMARK   12  A    between atoms: _29  and  _32
REMARK   13  A    between atoms: _32  and  _33
REMARK   14  A    between atoms: _33  and  _34
REMARK   15  A    between atoms: _34  and  _35
REMARK   16  A    between atoms: _44  and  _46
REMARK   17  A    between atoms: _46  and  _47
REMARK   18  A    between atoms: _46  and  _49
REMARK   19  A    between atoms: _49  and  _50
REMARK   20  A    between atoms: _50  and  _51
REMARK   21  A    between atoms: _56  and  _58
REMARK   22  A    between atoms: _58  and  _59
REMARK   23  A    between atoms: _58  and  _61
REMARK   24  A    between atoms: _61  and  _62
REMARK   25  A    between atoms: _65  and  _67
REMARK   26  A    between atoms: _67  and  _68
REMARK   27  A    between atoms: _67  and  _70
REMARK   28  A    between atoms: _70  and  _71
REMARK   29  A    between atoms: _81  and  _83
REMARK   30  A    between atoms: _83  and  _84
REMARK   31  A    between atoms: _83  and  _86
REMARK   32  A    between atoms: _89  and  _91
REMARK   33  A    between atoms: _91  and  _92
REMARK   34  A    between atoms: _91  and  _94
REMARK   35  A    between atoms: _94  and  _95
REMARK   36  A    between atoms: _98  and  _100
REMARK   37  A    between atoms: _100  and  _101
REMARK   38  A    between atoms: _100  and  _103
REMARK   39  A    between atoms: _103  and  _104
REMARK   40  A    between atoms: _106  and  _108
REMARK   41  A    between atoms: _108  and  _109
REMARK   42  A    between atoms: _108  and  _111
REMARK   43  A    between atoms: _111  and  _112
REMARK   44  A    between atoms: _116  and  _117
REMARK   45  A    between atoms: _123  and  _124
REMARK   46  A    between atoms: _130  and  _131
REMARK   47  A    between atoms: _136  and  _138
REMARK   48  A    between atoms: _138  and  _139
REMARK   49  A    between atoms: _141  and  _143
REMARK   50  A    between atoms: _143  and  _144
REMARK   51  A    between atoms: _143  and  _146
REMARK   52  A    between atoms: _146  and  _147
REMARK   53  A    between atoms: _150  and  _152
REMARK   54  A    between atoms: _152  and  _153
REMARK   55  A    between atoms: _152  and  _155
REMARK   56  A    between atoms: _155  and  _156
REMARK   57  A    between atoms: _156  and  _157
REMARK   58  A    between atoms: _157  and  _158
REMARK   59  A    between atoms: _167  and  _169
REMARK   60  A    between atoms: _169  and  _170
REMARK   61  A    between atoms: _169  and  _172
REMARK   62  A    between atoms: _175  and  _177
REMARK   63  A    between atoms: _177  and  _178
REMARK   64  A    between atoms: _177  and  _180
REMARK   65  A    between atoms: _180  and  _181
REMARK   66  A    between atoms: _181  and  _182
REMARK   67  A    between atoms: _182  and  _183
REMARK   68  A    between atoms: _193  and  _194
REMARK   69  A    between atoms: _199  and  _201
REMARK   70  A    between atoms: _201  and  _202
REMARK   71  A    between atoms: _201  and  _204
REMARK   72  A    between atoms: _206  and  _208
REMARK   73  A    between atoms: _208  and  _209
REMARK   74  A    between atoms: _208  and  _211
REMARK   75  A    between atoms: _211  and  _212
REMARK   76  A    between atoms: _212  and  _213
REMARK   77  A    between atoms: _217  and  _218
REMARK   78  A    between atoms: _224  and  _225
REMARK   79  A    between atoms: _230  and  _232
REMARK   80  A    between atoms: _232  and  _233
REMARK   81  A    between atoms: _232  and  _235
REMARK   82  A    between atoms: _235  and  _236
REMARK   83  A    between atoms: _236  and  _237
REMARK   84  A    between atoms: _240  and  _242
REMARK   85  A    between atoms: _242  and  _243
REMARK   86  A    between atoms: _242  and  _245
REMARK   87  A    between atoms: _245  and  _246
REMARK   88  A    between atoms: _248  and  _250
REMARK   89  A    between atoms: _250  and  _251
REMARK   90  A    between atoms: _250  and  _253
REMARK   91  A    between atoms: _253  and  _254
REMARK   92  A    between atoms: _257  and  _259
REMARK   93  A    between atoms: _259  and  _260
REMARK   94  A    between atoms: _259  and  _262
REMARK   95  A    between atoms: _264  and  _266
REMARK   96  A    between atoms: _266  and  _267
REMARK   97  A    between atoms: _266  and  _269
REMARK   98  A    between atoms: _269  and  _270
REMARK   99  A    between atoms: _273  and  _275
REMARK  100  A    between atoms: _275  and  _276
REMARK  101  A    between atoms: _275  and  _278
REMARK  102  A    between atoms: _278  and  _279
REMARK  103  A    between atoms: _282  and  _284
REMARK  104  A    between atoms: _284  and  _285
REMARK  105  A    between atoms: _284  and  _287
REMARK  106  A    between atoms: _287  and  _288
REMARK                            x       y       z     vdW  Elec       q    Type
REMARK                         _______ _______ _______ _____ _____    ______ ____
ROOT
ATOM      1  O   HOH     1     100.307  99.971 -46.222  0.00  0.00    +0.000 OA
ENDROOT
TORSDOF 0
REMARK  Name = ../refined-set-2016/5a7b/5a7b_pocket.pdb
REMARK  106 active torsions:
REMARK  status: ('A' for Active; 'I' for Inactive)
REMARK    1  A    between atoms: _1  and  _3
REMARK    2  A    between atoms: _3  and  _4
REMARK    3  A    between atoms: _3  and  _6
REMARK    4  A    between atoms: _6  and  _7
REMARK    5  A    between atoms: _12  and  _13
REMARK    6  A    between atoms: _15  and  _17
REMARK    7  A    between atoms: _17  and  _18
REMARK    8  A    between atoms: _17  and  _20
REMARK    9  A    between atoms: _20  and  _21
REMARK   10  A    between atoms: _27  and  _29
REMARK   11  A    between atoms: _29  and  _30
REMARK   12  A    between atoms: _29  and  _32
REMARK   13  A    between atoms: _32  and  _33
REMARK   14  A    between atoms: _33  and  _34
REMARK   15  A    between atoms: _34  and  _35
REMARK   16  A    between atoms: _44  and  _46
REMARK   17  A    between atoms: _46  and  _47
REMARK   18  A    between atoms: _46  and  _49
REMARK   19  A    between atoms: _49  and  _50
REMARK   20  A    between atoms: _50  and  _51
REMARK   21  A    between atoms: _56  and  _58
REMARK   22  A    between atoms: _58  and  _59
REMARK   23  A    between atoms: _58  and  _61
REMARK   24  A    between atoms: _61  and  _62
REMARK   25  A    between atoms: _65  and  _67
REMARK   26  A    between atoms: _67  and  _68
REMARK   27  A    between atoms: _67  and  _70
REMARK   28  A    between atoms: _70  and  _71
REMARK   29  A    between atoms: _81  and  _83
REMARK   30  A    between atoms: _83  and  _84
REMARK   31  A    between atoms: _83  and  _86
REMARK   32  A    between atoms: _89  and  _91
REMARK   33  A    between atoms: _91  and  _92
REMARK   34  A    between atoms: _91  and  _94
REMARK   35  A    between atoms: _94  and  _95
REMARK   36  A    between atoms: _98  and  _100
REMARK   37  A    between atoms: _100  and  _101
REMARK   38  A    between atoms: _100  and  _103
REMARK   39  A    between atoms: _103  and  _104
REMARK   40  A    between atoms: _106  and  _108
REMARK   41  A    between atoms: _108  and  _109
REMARK   42  A    between atoms: _108  and  _111
REMARK   43  A    between atoms: _111  and  _112
REMARK   44  A    between atoms: _116  and  _117
REMARK   45  A    between atoms: _123  and  _124
REMARK   46  A    between atoms: _130  and  _131
REMARK   47  A    between atoms: _136  and  _138
REMARK   48  A    between atoms: _138  and  _139
REMARK   49  A    between atoms: _141  and  _143
REMARK   50  A    between atoms: _143  and  _144
REMARK   51  A    between atoms: _143  and  _146
REMARK   52  A    between atoms: _146  and  _147
REMARK   53  A    between atoms: _150  and  _152
REMARK   54  A    between atoms: _152  and  _153
REMARK   55  A    between atoms: _152  and  _155
REMARK   56  A    between atoms: _155  and  _156
REMARK   57  A    between atoms: _156  and  _157
REMARK   58  A    between atoms: _157  and  _158
REMARK   59  A    between atoms: _167  and  _169
REMARK   60  A    between atoms: _169  and  _170
REMARK   61  A    between atoms: _169  and  _172
REMARK   62  A    between atoms: _175  and  _177
REMARK   63  A    between atoms: _177  and  _178
REMARK   64  A    between atoms: _177  and  _180
REMARK   65  A    between atoms: _180  and  _181
REMARK   66  A    between atoms: _181  and  _182
REMARK   67  A    between atoms: _182  and  _183
REMARK   68  A    between atoms: _193  and  _194
REMARK   69  A    between atoms: _199  and  _201
REMARK   70  A    between atoms: _201  and  _202
REMARK   71  A    between atoms: _201  and  _204
REMARK   72  A    between atoms: _206  and  _208
REMARK   73  A    between atoms: _208  and  _209
REMARK   74  A    between atoms: _208  and  _211
REMARK   75  A    between atoms: _211  and  _212
REMARK   76  A    between atoms: _212  and  _213
REMARK   77  A    between atoms: _217  and  _218
REMARK   78  A    between atoms: _224  and  _225
REMARK   79  A    between atoms: _230  and  _232
REMARK   80  A    between atoms: _232  and  _233
REMARK   81  A    between atoms: _232  and  _235
REMARK   82  A    between atoms: _235  and  _236
REMARK   83  A    between atoms: _236  and  _237
REMARK   84  A    between atoms: _240  and  _242
REMARK   85  A    between atoms: _242  and  _243
REMARK   86  A    between atoms: _242  and  _245
REMARK   87  A    between atoms: _245  and  _246
REMARK   88  A    between atoms: _248  and  _250
REMARK   89  A    between atoms: _250  and  _251
REMARK   90  A    between atoms: _250  and  _253
REMARK   91  A    between atoms: _253  and  _254
REMARK   92  A    between atoms: _257  and  _259
REMARK   93  A    between atoms: _259  and  _260
REMARK   94  A    between atoms: _259  and  _262
REMARK   95  A    between atoms: _264  and  _266
REMARK   96  A    between atoms: _266  and  _267
REMARK   97  A    between atoms: _266  and  _269
REMARK   98  A    between atoms: _269  and  _270
REMARK   99  A    between atoms: _273  and  _275
REMARK  100  A    between atoms: _275  and  _276
REMARK  101  A    between atoms: _275  and  _278
REMARK  102  A    between atoms: _278  and  _279
REMARK  103  A    between atoms: _282  and  _284
REMARK  104  A    between atoms: _284  and  _285
REMARK  105  A    between atoms: _284  and  _287
REMARK  106  A    between atoms: _287  and  _288
REMARK                            x       y       z     vdW  Elec       q    Type
REMARK                         _______ _______ _______ _____ _____    ______ ____
ROOT
ATOM      1  O   HOH     1      95.805 102.526 -39.854  0.00  0.00    +0.000 OA
ENDROOT
TORSDOF 0
REMARK  Name = ../refined-set-2016/5a7b/5a7b_pocket.pdb
REMARK  106 active torsions:
REMARK  status: ('A' for Active; 'I' for Inactive)
REMARK    1  A    between atoms: _1  and  _3
REMARK    2  A    between atoms: _3  and  _4
REMARK    3  A    between atoms: _3  and  _6
REMARK    4  A    between atoms: _6  and  _7
REMARK    5  A    between atoms: _12  and  _13
REMARK    6  A    between atoms: _15  and  _17
REMARK    7  A    between atoms: _17  and  _18
REMARK    8  A    between atoms: _17  and  _20
REMARK    9  A    between atoms: _20  and  _21
REMARK   10  A    between atoms: _27  and  _29
REMARK   11  A    between atoms: _29  and  _30
REMARK   12  A    between atoms: _29  and  _32
REMARK   13  A    between atoms: _32  and  _33
REMARK   14  A    between atoms: _33  and  _34
REMARK   15  A    between atoms: _34  and  _35
REMARK   16  A    between atoms: _44  and  _46
REMARK   17  A    between atoms: _46  and  _47
REMARK   18  A    between atoms: _46  and  _49
REMARK   19  A    between atoms: _49  and  _50
REMARK   20  A    between atoms: _50  and  _51
REMARK   21  A    between atoms: _56  and  _58
REMARK   22  A    between atoms: _58  and  _59
REMARK   23  A    between atoms: _58  and  _61
REMARK   24  A    between atoms: _61  and  _62
REMARK   25  A    between atoms: _65  and  _67
REMARK   26  A    between atoms: _67  and  _68
REMARK   27  A    between atoms: _67  and  _70
REMARK   28  A    between atoms: _70  and  _71
REMARK   29  A    between atoms: _81  and  _83
REMARK   30  A    between atoms: _83  and  _84
REMARK   31  A    between atoms: _83  and  _86
REMARK   32  A    between atoms: _89  and  _91
REMARK   33  A    between atoms: _91  and  _92
REMARK   34  A    between atoms: _91  and  _94
REMARK   35  A    between atoms: _94  and  _95
REMARK   36  A    between atoms: _98  and  _100
REMARK   37  A    between atoms: _100  and  _101
REMARK   38  A    between atoms: _100  and  _103
REMARK   39  A    between atoms: _103  and  _104
REMARK   40  A    between atoms: _106  and  _108
REMARK   41  A    between atoms: _108  and  _109
REMARK   42  A    between atoms: _108  and  _111
REMARK   43  A    between atoms: _111  and  _112
REMARK   44  A    between atoms: _116  and  _117
REMARK   45  A    between atoms: _123  and  _124
REMARK   46  A    between atoms: _130  and  _131
REMARK   47  A    between atoms: _136  and  _138
REMARK   48  A    between atoms: _138  and  _139
REMARK   49  A    between atoms: _141  and  _143
REMARK   50  A    between atoms: _143  and  _144
REMARK   51  A    between atoms: _143  and  _146
REMARK   52  A    between atoms: _146  and  _147
REMARK   53  A    between atoms: _150  and  _152
REMARK   54  A    between atoms: _152  and  _153
REMARK   55  A    between atoms: _152  and  _155
REMARK   56  A    between atoms: _155  and  _156
REMARK   57  A    between atoms: _156  and  _157
REMARK   58  A    between atoms: _157  and  _158
REMARK   59  A    between atoms: _167  and  _169
REMARK   60  A    between atoms: _169  and  _170
REMARK   61  A    between atoms: _169  and  _172
REMARK   62  A    between atoms: _175  and  _177
REMARK   63  A    between atoms: _177  and  _178
REMARK   64  A    between atoms: _177  and  _180
REMARK   65  A    between atoms: _180  and  _181
REMARK   66  A    between atoms: _181  and  _182
REMARK   67  A    between atoms: _182  and  _183
REMARK   68  A    between atoms: _193  and  _194
REMARK   69  A    between atoms: _199  and  _201
REMARK   70  A    between atoms: _201  and  _202
REMARK   71  A    between atoms: _201  and  _204
REMARK   72  A    between atoms: _206  and  _208
REMARK   73  A    between atoms: _208  and  _209
REMARK   74  A    between atoms: _208  and  _211
REMARK   75  A    between atoms: _211  and  _212
REMARK   76  A    between atoms: _212  and  _213
REMARK   77  A    between atoms: _217  and  _218
REMARK   78  A    between atoms: _224  and  _225
REMARK   79  A    between atoms: _230  and  _232
REMARK   80  A    between atoms: _232  and  _233
REMARK   81  A    between atoms: _232  and  _235
REMARK   82  A    between atoms: _235  and  _236
REMARK   83  A    between atoms: _236  and  _237
REMARK   84  A    between atoms: _240  and  _242
REMARK   85  A    between atoms: _242  and  _243
REMARK   86  A    between atoms: _242  and  _245
REMARK   87  A    between atoms: _245  and  _246
REMARK   88  A    between atoms: _248  and  _250
REMARK   89  A    between atoms: _250  and  _251
REMARK   90  A    between atoms: _250  and  _253
REMARK   91  A    between atoms: _253  and  _254
REMARK   92  A    between atoms: _257  and  _259
REMARK   93  A    between atoms: _259  and  _260
REMARK   94  A    between atoms: _259  and  _262
REMARK   95  A    between atoms: _264  and  _266
REMARK   96  A    between atoms: _266  and  _267
REMARK   97  A    between atoms: _266  and  _269
REMARK   98  A    between atoms: _269  and  _270
REMARK   99  A    between atoms: _273  and  _275
REMARK  100  A    between atoms: _275  and  _276
REMARK  101  A    between atoms: _275  and  _278
REMARK  102  A    between atoms: _278  and  _279
REMARK  103  A    between atoms: _282  and  _284
REMARK  104  A    between atoms: _284  and  _285
REMARK  105  A    between atoms: _284  and  _287
REMARK  106  A    between atoms: _287  and  _288
REMARK                            x       y       z     vdW  Elec       q    Type
REMARK                         _______ _______ _______ _____ _____    ______ ____
ROOT
ATOM      1  O   HOH     1      99.910 102.549 -47.205  0.00  0.00    +0.000 OA
ENDROOT
TORSDOF 0
REMARK  Name = ../refined-set-2016/5a7b/5a7b_pocket.pdb
REMARK  106 active torsions:
REMARK  status: ('A' for Active; 'I' for Inactive)
REMARK    1  A    between atoms: _1  and  _3
REMARK    2  A    between atoms: _3  and  _4
REMARK    3  A    between atoms: _3  and  _6
REMARK    4  A    between atoms: _6  and  _7
REMARK    5  A    between atoms: _12  and  _13
REMARK    6  A    between atoms: _15  and  _17
REMARK    7  A    between atoms: _17  and  _18
REMARK    8  A    between atoms: _17  and  _20
REMARK    9  A    between atoms: _20  and  _21
REMARK   10  A    between atoms: _27  and  _29
REMARK   11  A    between atoms: _29  and  _30
REMARK   12  A    between atoms: _29  and  _32
REMARK   13  A    between atoms: _32  and  _33
REMARK   14  A    between atoms: _33  and  _34
REMARK   15  A    between atoms: _34  and  _35
REMARK   16  A    between atoms: _44  and  _46
REMARK   17  A    between atoms: _46  and  _47
REMARK   18  A    between atoms: _46  and  _49
REMARK   19  A    between atoms: _49  and  _50
REMARK   20  A    between atoms: _50  and  _51
REMARK   21  A    between atoms: _56  and  _58
REMARK   22  A    between atoms: _58  and  _59
REMARK   23  A    between atoms: _58  and  _61
REMARK   24  A    between atoms: _61  and  _62
REMARK   25  A    between atoms: _65  and  _67
REMARK   26  A    between atoms: _67  and  _68
REMARK   27  A    between atoms: _67  and  _70
REMARK   28  A    between atoms: _70  and  _71
REMARK   29  A    between atoms: _81  and  _83
REMARK   30  A    between atoms: _83  and  _84
REMARK   31  A    between atoms: _83  and  _86
REMARK   32  A    between atoms: _89  and  _91
REMARK   33  A    between atoms: _91  and  _92
REMARK   34  A    between atoms: _91  and  _94
REMARK   35  A    between atoms: _94  and  _95
REMARK   36  A    between atoms: _98  and  _100
REMARK   37  A    between atoms: _100  and  _101
REMARK   38  A    between atoms: _100  and  _103
REMARK   39  A    between atoms: _103  and  _104
REMARK   40  A    between atoms: _106  and  _108
REMARK   41  A    between atoms: _108  and  _109
REMARK   42  A    between atoms: _108  and  _111
REMARK   43  A    between atoms: _111  and  _112
REMARK   44  A    between atoms: _116  and  _117
REMARK   45  A    between atoms: _123  and  _124
REMARK   46  A    between atoms: _130  and  _131
REMARK   47  A    between atoms: _136  and  _138
REMARK   48  A    between atoms: _138  and  _139
REMARK   49  A    between atoms: _141  and  _143
REMARK   50  A    between atoms: _143  and  _144
REMARK   51  A    between atoms: _143  and  _146
REMARK   52  A    between atoms: _146  and  _147
REMARK   53  A    between atoms: _150  and  _152
REMARK   54  A    between atoms: _152  and  _153
REMARK   55  A    between atoms: _152  and  _155
REMARK   56  A    between atoms: _155  and  _156
REMARK   57  A    between atoms: _156  and  _157
REMARK   58  A    between atoms: _157  and  _158
REMARK   59  A    between atoms: _167  and  _169
REMARK   60  A    between atoms: _169  and  _170
REMARK   61  A    between atoms: _169  and  _172
REMARK   62  A    between atoms: _175  and  _177
REMARK   63  A    between atoms: _177  and  _178
REMARK   64  A    between atoms: _177  and  _180
REMARK   65  A    between atoms: _180  and  _181
REMARK   66  A    between atoms: _181  and  _182
REMARK   67  A    between atoms: _182  and  _183
REMARK   68  A    between atoms: _193  and  _194
REMARK   69  A    between atoms: _199  and  _201
REMARK   70  A    between atoms: _201  and  _202
REMARK   71  A    between atoms: _201  and  _204
REMARK   72  A    between atoms: _206  and  _208
REMARK   73  A    between atoms: _208  and  _209
REMARK   74  A    between atoms: _208  and  _211
REMARK   75  A    between atoms: _211  and  _212
REMARK   76  A    between atoms: _212  and  _213
REMARK   77  A    between atoms: _217  and  _218
REMARK   78  A    between atoms: _224  and  _225
REMARK   79  A    between atoms: _230  and  _232
REMARK   80  A    between atoms: _232  and  _233
REMARK   81  A    between atoms: _232  and  _235
REMARK   82  A    between atoms: _235  and  _236
REMARK   83  A    between atoms: _236  and  _237
REMARK   84  A    between atoms: _240  and  _242
REMARK   85  A    between atoms: _242  and  _243
REMARK   86  A    between atoms: _242  and  _245
REMARK   87  A    between atoms: _245  and  _246
REMARK   88  A    between atoms: _248  and  _250
REMARK   89  A    between atoms: _250  and  _251
REMARK   90  A    between atoms: _250  and  _253
REMARK   91  A    between atoms: _253  and  _254
REMARK   92  A    between atoms: _257  and  _259
REMARK   93  A    between atoms: _259  and  _260
REMARK   94  A    between atoms: _259  and  _262
REMARK   95  A    between atoms: _264  and  _266
REMARK   96  A    between atoms: _266  and  _267
REMARK   97  A    between atoms: _266  and  _269
REMARK   98  A    between atoms: _269  and  _270
REMARK   99  A    between atoms: _273  and  _275
REMARK  100  A    between atoms: _275  and  _276
REMARK  101  A    between atoms: _275  and  _278
REMARK  102  A    between atoms: _278  and  _279
REMARK  103  A    between atoms: _282  and  _284
REMARK  104  A    between atoms: _284  and  _285
REMARK  105  A    between atoms: _284  and  _287
REMARK  106  A    between atoms: _287  and  _288
REMARK                            x       y       z     vdW  Elec       q    Type
REMARK                         _______ _______ _______ _____ _____    ______ ____
ROOT
ATOM      1  O   HOH     1      92.420  97.317 -40.510  0.00  0.00    +0.000 OA
ENDROOT
TORSDOF 0
REMARK  Name = ../refined-set-2016/5a7b/5a7b_pocket.pdb
REMARK  106 active torsions:
REMARK  status: ('A' for Active; 'I' for Inactive)
REMARK    1  A    between atoms: _1  and  _3
REMARK    2  A    between atoms: _3  and  _4
REMARK    3  A    between atoms: _3  and  _6
REMARK    4  A    between atoms: _6  and  _7
REMARK    5  A    between atoms: _12  and  _13
REMARK    6  A    between atoms: _15  and  _17
REMARK    7  A    between atoms: _17  and  _18
REMARK    8  A    between atoms: _17  and  _20
REMARK    9  A    between atoms: _20  and  _21
REMARK   10  A    between atoms: _27  and  _29
REMARK   11  A    between atoms: _29  and  _30
REMARK   12  A    between atoms: _29  and  _32
REMARK   13  A    between atoms: _32  and  _33
REMARK   14  A    between atoms: _33  and  _34
REMARK   15  A    between atoms: _34  and  _35
REMARK   16  A    between atoms: _44  and  _46
REMARK   17  A    between atoms: _46  and  _47
REMARK   18  A    between atoms: _46  and  _49
REMARK   19  A    between atoms: _49  and  _50
REMARK   20  A    between atoms: _50  and  _51
REMARK   21  A    between atoms: _56  and  _58
REMARK   22  A    between atoms: _58  and  _59
REMARK   23  A    between atoms: _58  and  _61
REMARK   24  A    between atoms: _61  and  _62
REMARK   25  A    between atoms: _65  and  _67
REMARK   26  A    between atoms: _67  and  _68
REMARK   27  A    between atoms: _67  and  _70
REMARK   28  A    between atoms: _70  and  _71
REMARK   29  A    between atoms: _81  and  _83
REMARK   30  A    between atoms: _83  and  _84
REMARK   31  A    between atoms: _83  and  _86
REMARK   32  A    between atoms: _89  and  _91
REMARK   33  A    between atoms: _91  and  _92
REMARK   34  A    between atoms: _91  and  _94
REMARK   35  A    between atoms: _94  and  _95
REMARK   36  A    between atoms: _98  and  _100
REMARK   37  A    between atoms: _100  and  _101
REMARK   38  A    between atoms: _100  and  _103
REMARK   39  A    between atoms: _103  and  _104
REMARK   40  A    between atoms: _106  and  _108
REMARK   41  A    between atoms: _108  and  _109
REMARK   42  A    between atoms: _108  and  _111
REMARK   43  A    between atoms: _111  and  _112
REMARK   44  A    between atoms: _116  and  _117
REMARK   45  A    between atoms: _123  and  _124
REMARK   46  A    between atoms: _130  and  _131
REMARK   47  A    between atoms: _136  and  _138
REMARK   48  A    between atoms: _138  and  _139
REMARK   49  A    between atoms: _141  and  _143
REMARK   50  A    between atoms: _143  and  _144
REMARK   51  A    between atoms: _143  and  _146
REMARK   52  A    between atoms: _146  and  _147
REMARK   53  A    between atoms: _150  and  _152
REMARK   54  A    between atoms: _152  and  _153
REMARK   55  A    between atoms: _152  and  _155
REMARK   56  A    between atoms: _155  and  _156
REMARK   57  A    between atoms: _156  and  _157
REMARK   58  A    between atoms: _157  and  _158
REMARK   59  A    between atoms: _167  and  _169
REMARK   60  A    between atoms: _169  and  _170
REMARK   61  A    between atoms: _169  and  _172
REMARK   62  A    between atoms: _175  and  _177
REMARK   63  A    between atoms: _177  and  _178
REMARK   64  A    between atoms: _177  and  _180
REMARK   65  A    between atoms: _180  and  _181
REMARK   66  A    between atoms: _181  and  _182
REMARK   67  A    between atoms: _182  and  _183
REMARK   68  A    between atoms: _193  and  _194
REMARK   69  A    between atoms: _199  and  _201
REMARK   70  A    between atoms: _201  and  _202
REMARK   71  A    between atoms: _201  and  _204
REMARK   72  A    between atoms: _206  and  _208
REMARK   73  A    between atoms: _208  and  _209
REMARK   74  A    between atoms: _208  and  _211
REMARK   75  A    between atoms: _211  and  _212
REMARK   76  A    between atoms: _212  and  _213
REMARK   77  A    between atoms: _217  and  _218
REMARK   78  A    between atoms: _224  and  _225
REMARK   79  A    between atoms: _230  and  _232
REMARK   80  A    between atoms: _232  and  _233
REMARK   81  A    between atoms: _232  and  _235
REMARK   82  A    between atoms: _235  and  _236
REMARK   83  A    between atoms: _236  and  _237
REMARK   84  A    between atoms: _240  and  _242
REMARK   85  A    between atoms: _242  and  _243
REMARK   86  A    between atoms: _242  and  _245
REMARK   87  A    between atoms: _245  and  _246
REMARK   88  A    between atoms: _248  and  _250
REMARK   89  A    between atoms: _250  and  _251
REMARK   90  A    between atoms: _250  and  _253
REMARK   91  A    between atoms: _253  and  _254
REMARK   92  A    between atoms: _257  and  _259
REMARK   93  A    between atoms: _259  and  _260
REMARK   94  A    between atoms: _259  and  _262
REMARK   95  A    between atoms: _264  and  _266
REMARK   96  A    between atoms: _266  and  _267
REMARK   97  A    between atoms: _266  and  _269
REMARK   98  A    between atoms: _269  and  _270
REMARK   99  A    between atoms: _273  and  _275
REMARK  100  A    between atoms: _275  and  _276
REMARK  101  A    between atoms: _275  and  _278
REMARK  102  A    between atoms: _278  and  _279
REMARK  103  A    between atoms: _282  and  _284
REMARK  104  A    between atoms: _284  and  _285
REMARK  105  A    between atoms: _284  and  _287
REMARK  106  A    between atoms: _287  and  _288
REMARK                            x       y       z     vdW  Elec       q    Type
REMARK                         _______ _______ _______ _____ _____    ______ ____
ROOT
ATOM      1  O   HOH     1      93.780 100.644 -39.951  0.00  0.00    +0.000 OA
ENDROOT
TORSDOF 0
REMARK  Name = ../refined-set-2016/5a7b/5a7b_pocket.pdb
REMARK  106 active torsions:
REMARK  status: ('A' for Active; 'I' for Inactive)
REMARK    1  A    between atoms: _1  and  _3
REMARK    2  A    between atoms: _3  and  _4
REMARK    3  A    between atoms: _3  and  _6
REMARK    4  A    between atoms: _6  and  _7
REMARK    5  A    between atoms: _12  and  _13
REMARK    6  A    between atoms: _15  and  _17
REMARK    7  A    between atoms: _17  and  _18
REMARK    8  A    between atoms: _17  and  _20
REMARK    9  A    between atoms: _20  and  _21
REMARK   10  A    between atoms: _27  and  _29
REMARK   11  A    between atoms: _29  and  _30
REMARK   12  A    between atoms: _29  and  _32
REMARK   13  A    between atoms: _32  and  _33
REMARK   14  A    between atoms: _33  and  _34
REMARK   15  A    between atoms: _34  and  _35
REMARK   16  A    between atoms: _44  and  _46
REMARK   17  A    between atoms: _46  and  _47
REMARK   18  A    between atoms: _46  and  _49
REMARK   19  A    between atoms: _49  and  _50
REMARK   20  A    between atoms: _50  and  _51
REMARK   21  A    between atoms: _56  and  _58
REMARK   22  A    between atoms: _58  and  _59
REMARK   23  A    between atoms: _58  and  _61
REMARK   24  A    between atoms: _61  and  _62
REMARK   25  A    between atoms: _65  and  _67
REMARK   26  A    between atoms: _67  and  _68
REMARK   27  A    between atoms: _67  and  _70
REMARK   28  A    between atoms: _70  and  _71
REMARK   29  A    between atoms: _81  and  _83
REMARK   30  A    between atoms: _83  and  _84
REMARK   31  A    between atoms: _83  and  _86
REMARK   32  A    between atoms: _89  and  _91
REMARK   33  A    between atoms: _91  and  _92
REMARK   34  A    between atoms: _91  and  _94
REMARK   35  A    between atoms: _94  and  _95
REMARK   36  A    between atoms: _98  and  _100
REMARK   37  A    between atoms: _100  and  _101
REMARK   38  A    between atoms: _100  and  _103
REMARK   39  A    between atoms: _103  and  _104
REMARK   40  A    between atoms: _106  and  _108
REMARK   41  A    between atoms: _108  and  _109
REMARK   42  A    between atoms: _108  and  _111
REMARK   43  A    between atoms: _111  and  _112
REMARK   44  A    between atoms: _116  and  _117
REMARK   45  A    between atoms: _123  and  _124
REMARK   46  A    between atoms: _130  and  _131
REMARK   47  A    between atoms: _136  and  _138
REMARK   48  A    between atoms: _138  and  _139
REMARK   49  A    between atoms: _141  and  _143
REMARK   50  A    between atoms: _143  and  _144
REMARK   51  A    between atoms: _143  and  _146
REMARK   52  A    between atoms: _146  and  _147
REMARK   53  A    between atoms: _150  and  _152
REMARK   54  A    between atoms: _152  and  _153
REMARK   55  A    between atoms: _152  and  _155
REMARK   56  A    between atoms: _155  and  _156
REMARK   57  A    between atoms: _156  and  _157
REMARK   58  A    between atoms: _157  and  _158
REMARK   59  A    between atoms: _167  and  _169
REMARK   60  A    between atoms: _169  and  _170
REMARK   61  A    between atoms: _169  and  _172
REMARK   62  A    between atoms: _175  and  _177
REMARK   63  A    between atoms: _177  and  _178
REMARK   64  A    between atoms: _177  and  _180
REMARK   65  A    between atoms: _180  and  _181
REMARK   66  A    between atoms: _181  and  _182
REMARK   67  A    between atoms: _182  and  _183
REMARK   68  A    between atoms: _193  and  _194
REMARK   69  A    between atoms: _199  and  _201
REMARK   70  A    between atoms: _201  and  _202
REMARK   71  A    between atoms: _201  and  _204
REMARK   72  A    between atoms: _206  and  _208
REMARK   73  A    between atoms: _208  and  _209
REMARK   74  A    between atoms: _208  and  _211
REMARK   75  A    between atoms: _211  and  _212
REMARK   76  A    between atoms: _212  and  _213
REMARK   77  A    between atoms: _217  and  _218
REMARK   78  A    between atoms: _224  and  _225
REMARK   79  A    between atoms: _230  and  _232
REMARK   80  A    between atoms: _232  and  _233
REMARK   81  A    between atoms: _232  and  _235
REMARK   82  A    between atoms: _235  and  _236
REMARK   83  A    between atoms: _236  and  _237
REMARK   84  A    between atoms: _240  and  _242
REMARK   85  A    between atoms: _242  and  _243
REMARK   86  A    between atoms: _242  and  _245
REMARK   87  A    between atoms: _245  and  _246
REMARK   88  A    between atoms: _248  and  _250
REMARK   89  A    between atoms: _250  and  _251
REMARK   90  A    between atoms: _250  and  _253
REMARK   91  A    between atoms: _253  and  _254
REMARK   92  A    between atoms: _257  and  _259
REMARK   93  A    between atoms: _259  and  _260
REMARK   94  A    between atoms: _259  and  _262
REMARK   95  A    between atoms: _264  and  _266
REMARK   96  A    between atoms: _266  and  _267
REMARK   97  A    between atoms: _266  and  _269
REMARK   98  A    between atoms: _269  and  _270
REMARK   99  A    between atoms: _273  and  _275
REMARK  100  A    between atoms: _275  and  _276
REMARK  101  A    between atoms: _275  and  _278
REMARK  102  A    between atoms: _278  and  _279
REMARK  103  A    between atoms: _282  and  _284
REMARK  104  A    between atoms: _284  and  _285
REMARK  105  A    between atoms: _284  and  _287
REMARK  106  A    between atoms: _287  and  _288
REMARK                            x       y       z     vdW  Elec       q    Type
REMARK                         _______ _______ _______ _____ _____    ______ ____
ROOT
ATOM      1  O   HOH     1      96.407 103.910 -44.455  0.00  0.00    +0.000 OA
ENDROOT
TORSDOF 0
REMARK  Name = ../refined-set-2016/5a7b/5a7b_pocket.pdb
REMARK  106 active torsions:
REMARK  status: ('A' for Active; 'I' for Inactive)
REMARK    1  A    between atoms: _1  and  _3
REMARK    2  A    between atoms: _3  and  _4
REMARK    3  A    between atoms: _3  and  _6
REMARK    4  A    between atoms: _6  and  _7
REMARK    5  A    between atoms: _12  and  _13
REMARK    6  A    between atoms: _15  and  _17
REMARK    7  A    between atoms: _17  and  _18
REMARK    8  A    between atoms: _17  and  _20
REMARK    9  A    between atoms: _20  and  _21
REMARK   10  A    between atoms: _27  and  _29
REMARK   11  A    between atoms: _29  and  _30
REMARK   12  A    between atoms: _29  and  _32
REMARK   13  A    between atoms: _32  and  _33
REMARK   14  A    between atoms: _33  and  _34
REMARK   15  A    between atoms: _34  and  _35
REMARK   16  A    between atoms: _44  and  _46
REMARK   17  A    between atoms: _46  and  _47
REMARK   18  A    between atoms: _46  and  _49
REMARK   19  A    between atoms: _49  and  _50
REMARK   20  A    between atoms: _50  and  _51
REMARK   21  A    between atoms: _56  and  _58
REMARK   22  A    between atoms: _58  and  _59
REMARK   23  A    between atoms: _58  and  _61
REMARK   24  A    between atoms: _61  and  _62
REMARK   25  A    between atoms: _65  and  _67
REMARK   26  A    between atoms: _67  and  _68
REMARK   27  A    between atoms: _67  and  _70
REMARK   28  A    between atoms: _70  and  _71
REMARK   29  A    between atoms: _81  and  _83
REMARK   30  A    between atoms: _83  and  _84
REMARK   31  A    between atoms: _83  and  _86
REMARK   32  A    between atoms: _89  and  _91
REMARK   33  A    between atoms: _91  and  _92
REMARK   34  A    between atoms: _91  and  _94
REMARK   35  A    between atoms: _94  and  _95
REMARK   36  A    between atoms: _98  and  _100
REMARK   37  A    between atoms: _100  and  _101
REMARK   38  A    between atoms: _100  and  _103
REMARK   39  A    between atoms: _103  and  _104
REMARK   40  A    between atoms: _106  and  _108
REMARK   41  A    between atoms: _108  and  _109
REMARK   42  A    between atoms: _108  and  _111
REMARK   43  A    between atoms: _111  and  _112
REMARK   44  A    between atoms: _116  and  _117
REMARK   45  A    between atoms: _123  and  _124
REMARK   46  A    between atoms: _130  and  _131
REMARK   47  A    between atoms: _136  and  _138
REMARK   48  A    between atoms: _138  and  _139
REMARK   49  A    between atoms: _141  and  _143
REMARK   50  A    between atoms: _143  and  _144
REMARK   51  A    between atoms: _143  and  _146
REMARK   52  A    between atoms: _146  and  _147
REMARK   53  A    between atoms: _150  and  _152
REMARK   54  A    between atoms: _152  and  _153
REMARK   55  A    between atoms: _152  and  _155
REMARK   56  A    between atoms: _155  and  _156
REMARK   57  A    between atoms: _156  and  _157
REMARK   58  A    between atoms: _157  and  _158
REMARK   59  A    between atoms: _167  and  _169
REMARK   60  A    between atoms: _169  and  _170
REMARK   61  A    between atoms: _169  and  _172
REMARK   62  A    between atoms: _175  and  _177
REMARK   63  A    between atoms: _177  and  _178
REMARK   64  A    between atoms: _177  and  _180
REMARK   65  A    between atoms: _180  and  _181
REMARK   66  A    between atoms: _181  and  _182
REMARK   67  A    between atoms: _182  and  _183
REMARK   68  A    between atoms: _193  and  _194
REMARK   69  A    between atoms: _199  and  _201
REMARK   70  A    between atoms: _201  and  _202
REMARK   71  A    between atoms: _201  and  _204
REMARK   72  A    between atoms: _206  and  _208
REMARK   73  A    between atoms: _208  and  _209
REMARK   74  A    between atoms: _208  and  _211
REMARK   75  A    between atoms: _211  and  _212
REMARK   76  A    between atoms: _212  and  _213
REMARK   77  A    between atoms: _217  and  _218
REMARK   78  A    between atoms: _224  and  _225
REMARK   79  A    between atoms: _230  and  _232
REMARK   80  A    between atoms: _232  and  _233
REMARK   81  A    between atoms: _232  and  _235
REMARK   82  A    between atoms: _235  and  _236
REMARK   83  A    between atoms: _236  and  _237
REMARK   84  A    between atoms: _240  and  _242
REMARK   85  A    between atoms: _242  and  _243
REMARK   86  A    between atoms: _242  and  _245
REMARK   87  A    between atoms: _245  and  _246
REMARK   88  A    between atoms: _248  and  _250
REMARK   89  A    between atoms: _250  and  _251
REMARK   90  A    between atoms: _250  and  _253
REMARK   91  A    between atoms: _253  and  _254
REMARK   92  A    between atoms: _257  and  _259
REMARK   93  A    between atoms: _259  and  _260
REMARK   94  A    between atoms: _259  and  _262
REMARK   95  A    between atoms: _264  and  _266
REMARK   96  A    between atoms: _266  and  _267
REMARK   97  A    between atoms: _266  and  _269
REMARK   98  A    between atoms: _269  and  _270
REMARK   99  A    between atoms: _273  and  _275
REMARK  100  A    between atoms: _275  and  _276
REMARK  101  A    between atoms: _275  and  _278
REMARK  102  A    between atoms: _278  and  _279
REMARK  103  A    between atoms: _282  and  _284
REMARK  104  A    between atoms: _284  and  _285
REMARK  105  A    between atoms: _284  and  _287
REMARK  106  A    between atoms: _287  and  _288
REMARK                            x       y       z     vdW  Elec       q    Type
REMARK                         _______ _______ _______ _____ _____    ______ ____
ROOT
ATOM      1  O   HOH     1      96.751 103.301 -47.044  0.00  0.00    +0.000 OA
ENDROOT
TORSDOF 0
REMARK  Name = ../refined-set-2016/5a7b/5a7b_pocket.pdb
REMARK  106 active torsions:
REMARK  status: ('A' for Active; 'I' for Inactive)
REMARK    1  A    between atoms: _1  and  _3
REMARK    2  A    between atoms: _3  and  _4
REMARK    3  A    between atoms: _3  and  _6
REMARK    4  A    between atoms: _6  and  _7
REMARK    5  A    between atoms: _12  and  _13
REMARK    6  A    between atoms: _15  and  _17
REMARK    7  A    between atoms: _17  and  _18
REMARK    8  A    between atoms: _17  and  _20
REMARK    9  A    between atoms: _20  and  _21
REMARK   10  A    between atoms: _27  and  _29
REMARK   11  A    between atoms: _29  and  _30
REMARK   12  A    between atoms: _29  and  _32
REMARK   13  A    between atoms: _32  and  _33
REMARK   14  A    between atoms: _33  and  _34
REMARK   15  A    between atoms: _34  and  _35
REMARK   16  A    between atoms: _44  and  _46
REMARK   17  A    between atoms: _46  and  _47
REMARK   18  A    between atoms: _46  and  _49
REMARK   19  A    between atoms: _49  and  _50
REMARK   20  A    between atoms: _50  and  _51
REMARK   21  A    between atoms: _56  and  _58
REMARK   22  A    between atoms: _58  and  _59
REMARK   23  A    between atoms: _58  and  _61
REMARK   24  A    between atoms: _61  and  _62
REMARK   25  A    between atoms: _65  and  _67
REMARK   26  A    between atoms: _67  and  _68
REMARK   27  A    between atoms: _67  and  _70
REMARK   28  A    between atoms: _70  and  _71
REMARK   29  A    between atoms: _81  and  _83
REMARK   30  A    between atoms: _83  and  _84
REMARK   31  A    between atoms: _83  and  _86
REMARK   32  A    between atoms: _89  and  _91
REMARK   33  A    between atoms: _91  and  _92
REMARK   34  A    between atoms: _91  and  _94
REMARK   35  A    between atoms: _94  and  _95
REMARK   36  A    between atoms: _98  and  _100
REMARK   37  A    between atoms: _100  and  _101
REMARK   38  A    between atoms: _100  and  _103
REMARK   39  A    between atoms: _103  and  _104
REMARK   40  A    between atoms: _106  and  _108
REMARK   41  A    between atoms: _108  and  _109
REMARK   42  A    between atoms: _108  and  _111
REMARK   43  A    between atoms: _111  and  _112
REMARK   44  A    between atoms: _116  and  _117
REMARK   45  A    between atoms: _123  and  _124
REMARK   46  A    between atoms: _130  and  _131
REMARK   47  A    between atoms: _136  and  _138
REMARK   48  A    between atoms: _138  and  _139
REMARK   49  A    between atoms: _141  and  _143
REMARK   50  A    between atoms: _143  and  _144
REMARK   51  A    between atoms: _143  and  _146
REMARK   52  A    between atoms: _146  and  _147
REMARK   53  A    between atoms: _150  and  _152
REMARK   54  A    between atoms: _152  and  _153
REMARK   55  A    between atoms: _152  and  _155
REMARK   56  A    between atoms: _155  and  _156
REMARK   57  A    between atoms: _156  and  _157
REMARK   58  A    between atoms: _157  and  _158
REMARK   59  A    between atoms: _167  and  _169
REMARK   60  A    between atoms: _169  and  _170
REMARK   61  A    between atoms: _169  and  _172
REMARK   62  A    between atoms: _175  and  _177
REMARK   63  A    between atoms: _177  and  _178
REMARK   64  A    between atoms: _177  and  _180
REMARK   65  A    between atoms: _180  and  _181
REMARK   66  A    between atoms: _181  and  _182
REMARK   67  A    between atoms: _182  and  _183
REMARK   68  A    between atoms: _193  and  _194
REMARK   69  A    between atoms: _199  and  _201
REMARK   70  A    between atoms: _201  and  _202
REMARK   71  A    between atoms: _201  and  _204
REMARK   72  A    between atoms: _206  and  _208
REMARK   73  A    between atoms: _208  and  _209
REMARK   74  A    between atoms: _208  and  _211
REMARK   75  A    between atoms: _211  and  _212
REMARK   76  A    between atoms: _212  and  _213
REMARK   77  A    between atoms: _217  and  _218
REMARK   78  A    between atoms: _224  and  _225
REMARK   79  A    between atoms: _230  and  _232
REMARK   80  A    between atoms: _232  and  _233
REMARK   81  A    between atoms: _232  and  _235
REMARK   82  A    between atoms: _235  and  _236
REMARK   83  A    between atoms: _236  and  _237
REMARK   84  A    between atoms: _240  and  _242
REMARK   85  A    between atoms: _242  and  _243
REMARK   86  A    between atoms: _242  and  _245
REMARK   87  A    between atoms: _245  and  _246
REMARK   88  A    between atoms: _248  and  _250
REMARK   89  A    between atoms: _250  and  _251
REMARK   90  A    between atoms: _250  and  _253
REMARK   91  A    between atoms: _253  and  _254
REMARK   92  A    between atoms: _257  and  _259
REMARK   93  A    between atoms: _259  and  _260
REMARK   94  A    between atoms: _259  and  _262
REMARK   95  A    between atoms: _264  and  _266
REMARK   96  A    between atoms: _266  and  _267
REMARK   97  A    between atoms: _266  and  _269
REMARK   98  A    between atoms: _269  and  _270
REMARK   99  A    between atoms: _273  and  _275
REMARK  100  A    between atoms: _275  and  _276
REMARK  101  A    between atoms: _275  and  _278
REMARK  102  A    between atoms: _278  and  _279
REMARK  103  A    between atoms: _282  and  _284
REMARK  104  A    between atoms: _284  and  _285
REMARK  105  A    between atoms: _284  and  _287
REMARK  106  A    between atoms: _287  and  _288
REMARK                            x       y       z     vdW  Elec       q    Type
REMARK                         _______ _______ _______ _____ _____    ______ ____
ROOT
ATOM      1  O   HOH     1      98.949 103.491 -39.378  0.00  0.00    +0.000 OA
ENDROOT
TORSDOF 0
REMARK  Name = ../refined-set-2016/5a7b/5a7b_pocket.pdb
REMARK  106 active torsions:
REMARK  status: ('A' for Active; 'I' for Inactive)
REMARK    1  A    between atoms: _1  and  _3
REMARK    2  A    between atoms: _3  and  _4
REMARK    3  A    between atoms: _3  and  _6
REMARK    4  A    between atoms: _6  and  _7
REMARK    5  A    between atoms: _12  and  _13
REMARK    6  A    between atoms: _15  and  _17
REMARK    7  A    between atoms: _17  and  _18
REMARK    8  A    between atoms: _17  and  _20
REMARK    9  A    between atoms: _20  and  _21
REMARK   10  A    between atoms: _27  and  _29
REMARK   11  A    between atoms: _29  and  _30
REMARK   12  A    between atoms: _29  and  _32
REMARK   13  A    between atoms: _32  and  _33
REMARK   14  A    between atoms: _33  and  _34
REMARK   15  A    between atoms: _34  and  _35
REMARK   16  A    between atoms: _44  and  _46
REMARK   17  A    between atoms: _46  and  _47
REMARK   18  A    between atoms: _46  and  _49
REMARK   19  A    between atoms: _49  and  _50
REMARK   20  A    between atoms: _50  and  _51
REMARK   21  A    between atoms: _56  and  _58
REMARK   22  A    between atoms: _58  and  _59
REMARK   23  A    between atoms: _58  and  _61
REMARK   24  A    between atoms: _61  and  _62
REMARK   25  A    between atoms: _65  and  _67
REMARK   26  A    between atoms: _67  and  _68
REMARK   27  A    between atoms: _67  and  _70
REMARK   28  A    between atoms: _70  and  _71
REMARK   29  A    between atoms: _81  and  _83
REMARK   30  A    between atoms: _83  and  _84
REMARK   31  A    between atoms: _83  and  _86
REMARK   32  A    between atoms: _89  and  _91
REMARK   33  A    between atoms: _91  and  _92
REMARK   34  A    between atoms: _91  and  _94
REMARK   35  A    between atoms: _94  and  _95
REMARK   36  A    between atoms: _98  and  _100
REMARK   37  A    between atoms: _100  and  _101
REMARK   38  A    between atoms: _100  and  _103
REMARK   39  A    between atoms: _103  and  _104
REMARK   40  A    between atoms: _106  and  _108
REMARK   41  A    between atoms: _108  and  _109
REMARK   42  A    between atoms: _108  and  _111
REMARK   43  A    between atoms: _111  and  _112
REMARK   44  A    between atoms: _116  and  _117
REMARK   45  A    between atoms: _123  and  _124
REMARK   46  A    between atoms: _130  and  _131
REMARK   47  A    between atoms: _136  and  _138
REMARK   48  A    between atoms: _138  and  _139
REMARK   49  A    between atoms: _141  and  _143
REMARK   50  A    between atoms: _143  and  _144
REMARK   51  A    between atoms: _143  and  _146
REMARK   52  A    between atoms: _146  and  _147
REMARK   53  A    between atoms: _150  and  _152
REMARK   54  A    between atoms: _152  and  _153
REMARK   55  A    between atoms: _152  and  _155
REMARK   56  A    between atoms: _155  and  _156
REMARK   57  A    between atoms: _156  and  _157
REMARK   58  A    between atoms: _157  and  _158
REMARK   59  A    between atoms: _167  and  _169
REMARK   60  A    between atoms: _169  and  _170
REMARK   61  A    between atoms: _169  and  _172
REMARK   62  A    between atoms: _175  and  _177
REMARK   63  A    between atoms: _177  and  _178
REMARK   64  A    between atoms: _177  and  _180
REMARK   65  A    between atoms: _180  and  _181
REMARK   66  A    between atoms: _181  and  _182
REMARK   67  A    between atoms: _182  and  _183
REMARK   68  A    between atoms: _193  and  _194
REMARK   69  A    between atoms: _199  and  _201
REMARK   70  A    between atoms: _201  and  _202
REMARK   71  A    between atoms: _201  and  _204
REMARK   72  A    between atoms: _206  and  _208
REMARK   73  A    between atoms: _208  and  _209
REMARK   74  A    between atoms: _208  and  _211
REMARK   75  A    between atoms: _211  and  _212
REMARK   76  A    between atoms: _212  and  _213
REMARK   77  A    between atoms: _217  and  _218
REMARK   78  A    between atoms: _224  and  _225
REMARK   79  A    between atoms: _230  and  _232
REMARK   80  A    between atoms: _232  and  _233
REMARK   81  A    between atoms: _232  and  _235
REMARK   82  A    between atoms: _235  and  _236
REMARK   83  A    between atoms: _236  and  _237
REMARK   84  A    between atoms: _240  and  _242
REMARK   85  A    between atoms: _242  and  _243
REMARK   86  A    between atoms: _242  and  _245
REMARK   87  A    between atoms: _245  and  _246
REMARK   88  A    between atoms: _248  and  _250
REMARK   89  A    between atoms: _250  and  _251
REMARK   90  A    between atoms: _250  and  _253
REMARK   91  A    between atoms: _253  and  _254
REMARK   92  A    between atoms: _257  and  _259
REMARK   93  A    between atoms: _259  and  _260
REMARK   94  A    between atoms: _259  and  _262
REMARK   95  A    between atoms: _264  and  _266
REMARK   96  A    between atoms: _266  and  _267
REMARK   97  A    between atoms: _266  and  _269
REMARK   98  A    between atoms: _269  and  _270
REMARK   99  A    between atoms: _273  and  _275
REMARK  100  A    between atoms: _275  and  _276
REMARK  101  A    between atoms: _275  and  _278
REMARK  102  A    between atoms: _278  and  _279
REMARK  103  A    between atoms: _282  and  _284
REMARK  104  A    between atoms: _284  and  _285
REMARK  105  A    between atoms: _284  and  _287
REMARK  106  A    between atoms: _287  and  _288
REMARK                            x       y       z     vdW  Elec       q    Type
REMARK                         _______ _______ _______ _____ _____    ______ ____
ROOT
ATOM      1  O   HOH     1      99.021 104.566 -44.414  0.00  0.00    +0.000 OA
ENDROOT
TORSDOF 0
REMARK  Name = ../refined-set-2016/5a7b/5a7b_pocket.pdb
REMARK  106 active torsions:
REMARK  status: ('A' for Active; 'I' for Inactive)
REMARK    1  A    between atoms: _1  and  _3
REMARK    2  A    between atoms: _3  and  _4
REMARK    3  A    between atoms: _3  and  _6
REMARK    4  A    between atoms: _6  and  _7
REMARK    5  A    between atoms: _12  and  _13
REMARK    6  A    between atoms: _15  and  _17
REMARK    7  A    between atoms: _17  and  _18
REMARK    8  A    between atoms: _17  and  _20
REMARK    9  A    between atoms: _20  and  _21
REMARK   10  A    between atoms: _27  and  _29
REMARK   11  A    between atoms: _29  and  _30
REMARK   12  A    between atoms: _29  and  _32
REMARK   13  A    between atoms: _32  and  _33
REMARK   14  A    between atoms: _33  and  _34
REMARK   15  A    between atoms: _34  and  _35
REMARK   16  A    between atoms: _44  and  _46
REMARK   17  A    between atoms: _46  and  _47
REMARK   18  A    between atoms: _46  and  _49
REMARK   19  A    between atoms: _49  and  _50
REMARK   20  A    between atoms: _50  and  _51
REMARK   21  A    between atoms: _56  and  _58
REMARK   22  A    between atoms: _58  and  _59
REMARK   23  A    between atoms: _58  and  _61
REMARK   24  A    between atoms: _61  and  _62
REMARK   25  A    between atoms: _65  and  _67
REMARK   26  A    between atoms: _67  and  _68
REMARK   27  A    between atoms: _67  and  _70
REMARK   28  A    between atoms: _70  and  _71
REMARK   29  A    between atoms: _81  and  _83
REMARK   30  A    between atoms: _83  and  _84
REMARK   31  A    between atoms: _83  and  _86
REMARK   32  A    between atoms: _89  and  _91
REMARK   33  A    between atoms: _91  and  _92
REMARK   34  A    between atoms: _91  and  _94
REMARK   35  A    between atoms: _94  and  _95
REMARK   36  A    between atoms: _98  and  _100
REMARK   37  A    between atoms: _100  and  _101
REMARK   38  A    between atoms: _100  and  _103
REMARK   39  A    between atoms: _103  and  _104
REMARK   40  A    between atoms: _106  and  _108
REMARK   41  A    between atoms: _108  and  _109
REMARK   42  A    between atoms: _108  and  _111
REMARK   43  A    between atoms: _111  and  _112
REMARK   44  A    between atoms: _116  and  _117
REMARK   45  A    between atoms: _123  and  _124
REMARK   46  A    between atoms: _130  and  _131
REMARK   47  A    between atoms: _136  and  _138
REMARK   48  A    between atoms: _138  and  _139
REMARK   49  A    between atoms: _141  and  _143
REMARK   50  A    between atoms: _143  and  _144
REMARK   51  A    between atoms: _143  and  _146
REMARK   52  A    between atoms: _146  and  _147
REMARK   53  A    between atoms: _150  and  _152
REMARK   54  A    between atoms: _152  and  _153
REMARK   55  A    between atoms: _152  and  _155
REMARK   56  A    between atoms: _155  and  _156
REMARK   57  A    between atoms: _156  and  _157
REMARK   58  A    between atoms: _157  and  _158
REMARK   59  A    between atoms: _167  and  _169
REMARK   60  A    between atoms: _169  and  _170
REMARK   61  A    between atoms: _169  and  _172
REMARK   62  A    between atoms: _175  and  _177
REMARK   63  A    between atoms: _177  and  _178
REMARK   64  A    between atoms: _177  and  _180
REMARK   65  A    between atoms: _180  and  _181
REMARK   66  A    between atoms: _181  and  _182
REMARK   67  A    between atoms: _182  and  _183
REMARK   68  A    between atoms: _193  and  _194
REMARK   69  A    between atoms: _199  and  _201
REMARK   70  A    between atoms: _201  and  _202
REMARK   71  A    between atoms: _201  and  _204
REMARK   72  A    between atoms: _206  and  _208
REMARK   73  A    between atoms: _208  and  _209
REMARK   74  A    between atoms: _208  and  _211
REMARK   75  A    between atoms: _211  and  _212
REMARK   76  A    between atoms: _212  and  _213
REMARK   77  A    between atoms: _217  and  _218
REMARK   78  A    between atoms: _224  and  _225
REMARK   79  A    between atoms: _230  and  _232
REMARK   80  A    between atoms: _232  and  _233
REMARK   81  A    between atoms: _232  and  _235
REMARK   82  A    between atoms: _235  and  _236
REMARK   83  A    between atoms: _236  and  _237
REMARK   84  A    between atoms: _240  and  _242
REMARK   85  A    between atoms: _242  and  _243
REMARK   86  A    between atoms: _242  and  _245
REMARK   87  A    between atoms: _245  and  _246
REMARK   88  A    between atoms: _248  and  _250
REMARK   89  A    between atoms: _250  and  _251
REMARK   90  A    between atoms: _250  and  _253
REMARK   91  A    between atoms: _253  and  _254
REMARK   92  A    between atoms: _257  and  _259
REMARK   93  A    between atoms: _259  and  _260
REMARK   94  A    between atoms: _259  and  _262
REMARK   95  A    between atoms: _264  and  _266
REMARK   96  A    between atoms: _266  and  _267
REMARK   97  A    between atoms: _266  and  _269
REMARK   98  A    between atoms: _269  and  _270
REMARK   99  A    between atoms: _273  and  _275
REMARK  100  A    between atoms: _275  and  _276
REMARK  101  A    between atoms: _275  and  _278
REMARK  102  A    between atoms: _278  and  _279
REMARK  103  A    between atoms: _282  and  _284
REMARK  104  A    between atoms: _284  and  _285
REMARK  105  A    between atoms: _284  and  _287
REMARK  106  A    between atoms: _287  and  _288
REMARK                            x       y       z     vdW  Elec       q    Type
REMARK                         _______ _______ _______ _____ _____    ______ ____
ROOT
ATOM      1  O   HOH     1     100.345 105.062 -40.810  0.00  0.00    +0.000 OA
ENDROOT
TORSDOF 0
REMARK  Name = ../refined-set-2016/5a7b/5a7b_pocket.pdb
REMARK  106 active torsions:
REMARK  status: ('A' for Active; 'I' for Inactive)
REMARK    1  A    between atoms: _1  and  _3
REMARK    2  A    between atoms: _3  and  _4
REMARK    3  A    between atoms: _3  and  _6
REMARK    4  A    between atoms: _6  and  _7
REMARK    5  A    between atoms: _12  and  _13
REMARK    6  A    between atoms: _15  and  _17
REMARK    7  A    between atoms: _17  and  _18
REMARK    8  A    between atoms: _17  and  _20
REMARK    9  A    between atoms: _20  and  _21
REMARK   10  A    between atoms: _27  and  _29
REMARK   11  A    between atoms: _29  and  _30
REMARK   12  A    between atoms: _29  and  _32
REMARK   13  A    between atoms: _32  and  _33
REMARK   14  A    between atoms: _33  and  _34
REMARK   15  A    between atoms: _34  and  _35
REMARK   16  A    between atoms: _44  and  _46
REMARK   17  A    between atoms: _46  and  _47
REMARK   18  A    between atoms: _46  and  _49
REMARK   19  A    between atoms: _49  and  _50
REMARK   20  A    between atoms: _50  and  _51
REMARK   21  A    between atoms: _56  and  _58
REMARK   22  A    between atoms: _58  and  _59
REMARK   23  A    between atoms: _58  and  _61
REMARK   24  A    between atoms: _61  and  _62
REMARK   25  A    between atoms: _65  and  _67
REMARK   26  A    between atoms: _67  and  _68
REMARK   27  A    between atoms: _67  and  _70
REMARK   28  A    between atoms: _70  and  _71
REMARK   29  A    between atoms: _81  and  _83
REMARK   30  A    between atoms: _83  and  _84
REMARK   31  A    between atoms: _83  and  _86
REMARK   32  A    between atoms: _89  and  _91
REMARK   33  A    between atoms: _91  and  _92
REMARK   34  A    between atoms: _91  and  _94
REMARK   35  A    between atoms: _94  and  _95
REMARK   36  A    between atoms: _98  and  _100
REMARK   37  A    between atoms: _100  and  _101
REMARK   38  A    between atoms: _100  and  _103
REMARK   39  A    between atoms: _103  and  _104
REMARK   40  A    between atoms: _106  and  _108
REMARK   41  A    between atoms: _108  and  _109
REMARK   42  A    between atoms: _108  and  _111
REMARK   43  A    between atoms: _111  and  _112
REMARK   44  A    between atoms: _116  and  _117
REMARK   45  A    between atoms: _123  and  _124
REMARK   46  A    between atoms: _130  and  _131
REMARK   47  A    between atoms: _136  and  _138
REMARK   48  A    between atoms: _138  and  _139
REMARK   49  A    between atoms: _141  and  _143
REMARK   50  A    between atoms: _143  and  _144
REMARK   51  A    between atoms: _143  and  _146
REMARK   52  A    between atoms: _146  and  _147
REMARK   53  A    between atoms: _150  and  _152
REMARK   54  A    between atoms: _152  and  _153
REMARK   55  A    between atoms: _152  and  _155
REMARK   56  A    between atoms: _155  and  _156
REMARK   57  A    between atoms: _156  and  _157
REMARK   58  A    between atoms: _157  and  _158
REMARK   59  A    between atoms: _167  and  _169
REMARK   60  A    between atoms: _169  and  _170
REMARK   61  A    between atoms: _169  and  _172
REMARK   62  A    between atoms: _175  and  _177
REMARK   63  A    between atoms: _177  and  _178
REMARK   64  A    between atoms: _177  and  _180
REMARK   65  A    between atoms: _180  and  _181
REMARK   66  A    between atoms: _181  and  _182
REMARK   67  A    between atoms: _182  and  _183
REMARK   68  A    between atoms: _193  and  _194
REMARK   69  A    between atoms: _199  and  _201
REMARK   70  A    between atoms: _201  and  _202
REMARK   71  A    between atoms: _201  and  _204
REMARK   72  A    between atoms: _206  and  _208
REMARK   73  A    between atoms: _208  and  _209
REMARK   74  A    between atoms: _208  and  _211
REMARK   75  A    between atoms: _211  and  _212
REMARK   76  A    between atoms: _212  and  _213
REMARK   77  A    between atoms: _217  and  _218
REMARK   78  A    between atoms: _224  and  _225
REMARK   79  A    between atoms: _230  and  _232
REMARK   80  A    between atoms: _232  and  _233
REMARK   81  A    between atoms: _232  and  _235
REMARK   82  A    between atoms: _235  and  _236
REMARK   83  A    between atoms: _236  and  _237
REMARK   84  A    between atoms: _240  and  _242
REMARK   85  A    between atoms: _242  and  _243
REMARK   86  A    between atoms: _242  and  _245
REMARK   87  A    between atoms: _245  and  _246
REMARK   88  A    between atoms: _248  and  _250
REMARK   89  A    between atoms: _250  and  _251
REMARK   90  A    between atoms: _250  and  _253
REMARK   91  A    between atoms: _253  and  _254
REMARK   92  A    between atoms: _257  and  _259
REMARK   93  A    between atoms: _259  and  _260
REMARK   94  A    between atoms: _259  and  _262
REMARK   95  A    between atoms: _264  and  _266
REMARK   96  A    between atoms: _266  and  _267
REMARK   97  A    between atoms: _266  and  _269
REMARK   98  A    between atoms: _269  and  _270
REMARK   99  A    between atoms: _273  and  _275
REMARK  100  A    between atoms: _275  and  _276
REMARK  101  A    between atoms: _275  and  _278
REMARK  102  A    between atoms: _278  and  _279
REMARK  103  A    between atoms: _282  and  _284
REMARK  104  A    between atoms: _284  and  _285
REMARK  105  A    between atoms: _284  and  _287
REMARK  106  A    between atoms: _287  and  _288
REMARK                            x       y       z     vdW  Elec       q    Type
REMARK                         _______ _______ _______ _____ _____    ______ ____
ROOT
ATOM      1  O   HOH     1      96.396  97.625 -51.160  0.00  0.00    +0.000 OA
ENDROOT
TORSDOF 0
REMARK  Name = ../refined-set-2016/5a7b/5a7b_pocket.pdb
REMARK  106 active torsions:
REMARK  status: ('A' for Active; 'I' for Inactive)
REMARK    1  A    between atoms: _1  and  _3
REMARK    2  A    between atoms: _3  and  _4
REMARK    3  A    between atoms: _3  and  _6
REMARK    4  A    between atoms: _6  and  _7
REMARK    5  A    between atoms: _12  and  _13
REMARK    6  A    between atoms: _15  and  _17
REMARK    7  A    between atoms: _17  and  _18
REMARK    8  A    between atoms: _17  and  _20
REMARK    9  A    between atoms: _20  and  _21
REMARK   10  A    between atoms: _27  and  _29
REMARK   11  A    between atoms: _29  and  _30
REMARK   12  A    between atoms: _29  and  _32
REMARK   13  A    between atoms: _32  and  _33
REMARK   14  A    between atoms: _33  and  _34
REMARK   15  A    between atoms: _34  and  _35
REMARK   16  A    between atoms: _44  and  _46
REMARK   17  A    between atoms: _46  and  _47
REMARK   18  A    between atoms: _46  and  _49
REMARK   19  A    between atoms: _49  and  _50
REMARK   20  A    between atoms: _50  and  _51
REMARK   21  A    between atoms: _56  and  _58
REMARK   22  A    between atoms: _58  and  _59
REMARK   23  A    between atoms: _58  and  _61
REMARK   24  A    between atoms: _61  and  _62
REMARK   25  A    between atoms: _65  and  _67
REMARK   26  A    between atoms: _67  and  _68
REMARK   27  A    between atoms: _67  and  _70
REMARK   28  A    between atoms: _70  and  _71
REMARK   29  A    between atoms: _81  and  _83
REMARK   30  A    between atoms: _83  and  _84
REMARK   31  A    between atoms: _83  and  _86
REMARK   32  A    between atoms: _89  and  _91
REMARK   33  A    between atoms: _91  and  _92
REMARK   34  A    between atoms: _91  and  _94
REMARK   35  A    between atoms: _94  and  _95
REMARK   36  A    between atoms: _98  and  _100
REMARK   37  A    between atoms: _100  and  _101
REMARK   38  A    between atoms: _100  and  _103
REMARK   39  A    between atoms: _103  and  _104
REMARK   40  A    between atoms: _106  and  _108
REMARK   41  A    between atoms: _108  and  _109
REMARK   42  A    between atoms: _108  and  _111
REMARK   43  A    between atoms: _111  and  _112
REMARK   44  A    between atoms: _116  and  _117
REMARK   45  A    between atoms: _123  and  _124
REMARK   46  A    between atoms: _130  and  _131
REMARK   47  A    between atoms: _136  and  _138
REMARK   48  A    between atoms: _138  and  _139
REMARK   49  A    between atoms: _141  and  _143
REMARK   50  A    between atoms: _143  and  _144
REMARK   51  A    between atoms: _143  and  _146
REMARK   52  A    between atoms: _146  and  _147
REMARK   53  A    between atoms: _150  and  _152
REMARK   54  A    between atoms: _152  and  _153
REMARK   55  A    between atoms: _152  and  _155
REMARK   56  A    between atoms: _155  and  _156
REMARK   57  A    between atoms: _156  and  _157
REMARK   58  A    between atoms: _157  and  _158
REMARK   59  A    between atoms: _167  and  _169
REMARK   60  A    between atoms: _169  and  _170
REMARK   61  A    between atoms: _169  and  _172
REMARK   62  A    between atoms: _175  and  _177
REMARK   63  A    between atoms: _177  and  _178
REMARK   64  A    between atoms: _177  and  _180
REMARK   65  A    between atoms: _180  and  _181
REMARK   66  A    between atoms: _181  and  _182
REMARK   67  A    between atoms: _182  and  _183
REMARK   68  A    between atoms: _193  and  _194
REMARK   69  A    between atoms: _199  and  _201
REMARK   70  A    between atoms: _201  and  _202
REMARK   71  A    between atoms: _201  and  _204
REMARK   72  A    between atoms: _206  and  _208
REMARK   73  A    between atoms: _208  and  _209
REMARK   74  A    between atoms: _208  and  _211
REMARK   75  A    between atoms: _211  and  _212
REMARK   76  A    between atoms: _212  and  _213
REMARK   77  A    between atoms: _217  and  _218
REMARK   78  A    between atoms: _224  and  _225
REMARK   79  A    between atoms: _230  and  _232
REMARK   80  A    between atoms: _232  and  _233
REMARK   81  A    between atoms: _232  and  _235
REMARK   82  A    between atoms: _235  and  _236
REMARK   83  A    between atoms: _236  and  _237
REMARK   84  A    between atoms: _240  and  _242
REMARK   85  A    between atoms: _242  and  _243
REMARK   86  A    between atoms: _242  and  _245
REMARK   87  A    between atoms: _245  and  _246
REMARK   88  A    between atoms: _248  and  _250
REMARK   89  A    between atoms: _250  and  _251
REMARK   90  A    between atoms: _250  and  _253
REMARK   91  A    between atoms: _253  and  _254
REMARK   92  A    between atoms: _257  and  _259
REMARK   93  A    between atoms: _259  and  _260
REMARK   94  A    between atoms: _259  and  _262
REMARK   95  A    between atoms: _264  and  _266
REMARK   96  A    between atoms: _266  and  _267
REMARK   97  A    between atoms: _266  and  _269
REMARK   98  A    between atoms: _269  and  _270
REMARK   99  A    between atoms: _273  and  _275
REMARK  100  A    between atoms: _275  and  _276
REMARK  101  A    between atoms: _275  and  _278
REMARK  102  A    between atoms: _278  and  _279
REMARK  103  A    between atoms: _282  and  _284
REMARK  104  A    between atoms: _284  and  _285
REMARK  105  A    between atoms: _284  and  _287
REMARK  106  A    between atoms: _287  and  _288
REMARK                            x       y       z     vdW  Elec       q    Type
REMARK                         _______ _______ _______ _____ _____    ______ ____
ROOT
ATOM      1  O   HOH     1      93.356  99.974 -48.854  0.00  0.00    +0.000 OA
ENDROOT
TORSDOF 0
REMARK  Name = ../refined-set-2016/5a7b/5a7b_pocket.pdb
REMARK  106 active torsions:
REMARK  status: ('A' for Active; 'I' for Inactive)
REMARK    1  A    between atoms: _1  and  _3
REMARK    2  A    between atoms: _3  and  _4
REMARK    3  A    between atoms: _3  and  _6
REMARK    4  A    between atoms: _6  and  _7
REMARK    5  A    between atoms: _12  and  _13
REMARK    6  A    between atoms: _15  and  _17
REMARK    7  A    between atoms: _17  and  _18
REMARK    8  A    between atoms: _17  and  _20
REMARK    9  A    between atoms: _20  and  _21
REMARK   10  A    between atoms: _27  and  _29
REMARK   11  A    between atoms: _29  and  _30
REMARK   12  A    between atoms: _29  and  _32
REMARK   13  A    between atoms: _32  and  _33
REMARK   14  A    between atoms: _33  and  _34
REMARK   15  A    between atoms: _34  and  _35
REMARK   16  A    between atoms: _44  and  _46
REMARK   17  A    between atoms: _46  and  _47
REMARK   18  A    between atoms: _46  and  _49
REMARK   19  A    between atoms: _49  and  _50
REMARK   20  A    between atoms: _50  and  _51
REMARK   21  A    between atoms: _56  and  _58
REMARK   22  A    between atoms: _58  and  _59
REMARK   23  A    between atoms: _58  and  _61
REMARK   24  A    between atoms: _61  and  _62
REMARK   25  A    between atoms: _65  and  _67
REMARK   26  A    between atoms: _67  and  _68
REMARK   27  A    between atoms: _67  and  _70
REMARK   28  A    between atoms: _70  and  _71
REMARK   29  A    between atoms: _81  and  _83
REMARK   30  A    between atoms: _83  and  _84
REMARK   31  A    between atoms: _83  and  _86
REMARK   32  A    between atoms: _89  and  _91
REMARK   33  A    between atoms: _91  and  _92
REMARK   34  A    between atoms: _91  and  _94
REMARK   35  A    between atoms: _94  and  _95
REMARK   36  A    between atoms: _98  and  _100
REMARK   37  A    between atoms: _100  and  _101
REMARK   38  A    between atoms: _100  and  _103
REMARK   39  A    between atoms: _103  and  _104
REMARK   40  A    between atoms: _106  and  _108
REMARK   41  A    between atoms: _108  and  _109
REMARK   42  A    between atoms: _108  and  _111
REMARK   43  A    between atoms: _111  and  _112
REMARK   44  A    between atoms: _116  and  _117
REMARK   45  A    between atoms: _123  and  _124
REMARK   46  A    between atoms: _130  and  _131
REMARK   47  A    between atoms: _136  and  _138
REMARK   48  A    between atoms: _138  and  _139
REMARK   49  A    between atoms: _141  and  _143
REMARK   50  A    between atoms: _143  and  _144
REMARK   51  A    between atoms: _143  and  _146
REMARK   52  A    between atoms: _146  and  _147
REMARK   53  A    between atoms: _150  and  _152
REMARK   54  A    between atoms: _152  and  _153
REMARK   55  A    between atoms: _152  and  _155
REMARK   56  A    between atoms: _155  and  _156
REMARK   57  A    between atoms: _156  and  _157
REMARK   58  A    between atoms: _157  and  _158
REMARK   59  A    between atoms: _167  and  _169
REMARK   60  A    between atoms: _169  and  _170
REMARK   61  A    between atoms: _169  and  _172
REMARK   62  A    between atoms: _175  and  _177
REMARK   63  A    between atoms: _177  and  _178
REMARK   64  A    between atoms: _177  and  _180
REMARK   65  A    between atoms: _180  and  _181
REMARK   66  A    between atoms: _181  and  _182
REMARK   67  A    between atoms: _182  and  _183
REMARK   68  A    between atoms: _193  and  _194
REMARK   69  A    between atoms: _199  and  _201
REMARK   70  A    between atoms: _201  and  _202
REMARK   71  A    between atoms: _201  and  _204
REMARK   72  A    between atoms: _206  and  _208
REMARK   73  A    between atoms: _208  and  _209
REMARK   74  A    between atoms: _208  and  _211
REMARK   75  A    between atoms: _211  and  _212
REMARK   76  A    between atoms: _212  and  _213
REMARK   77  A    between atoms: _217  and  _218
REMARK   78  A    between atoms: _224  and  _225
REMARK   79  A    between atoms: _230  and  _232
REMARK   80  A    between atoms: _232  and  _233
REMARK   81  A    between atoms: _232  and  _235
REMARK   82  A    between atoms: _235  and  _236
REMARK   83  A    between atoms: _236  and  _237
REMARK   84  A    between atoms: _240  and  _242
REMARK   85  A    between atoms: _242  and  _243
REMARK   86  A    between atoms: _242  and  _245
REMARK   87  A    between atoms: _245  and  _246
REMARK   88  A    between atoms: _248  and  _250
REMARK   89  A    between atoms: _250  and  _251
REMARK   90  A    between atoms: _250  and  _253
REMARK   91  A    between atoms: _253  and  _254
REMARK   92  A    between atoms: _257  and  _259
REMARK   93  A    between atoms: _259  and  _260
REMARK   94  A    between atoms: _259  and  _262
REMARK   95  A    between atoms: _264  and  _266
REMARK   96  A    between atoms: _266  and  _267
REMARK   97  A    between atoms: _266  and  _269
REMARK   98  A    between atoms: _269  and  _270
REMARK   99  A    between atoms: _273  and  _275
REMARK  100  A    between atoms: _275  and  _276
REMARK  101  A    between atoms: _275  and  _278
REMARK  102  A    between atoms: _278  and  _279
REMARK  103  A    between atoms: _282  and  _284
REMARK  104  A    between atoms: _284  and  _285
REMARK  105  A    between atoms: _284  and  _287
REMARK  106  A    between atoms: _287  and  _288
REMARK                            x       y       z     vdW  Elec       q    Type
REMARK                         _______ _______ _______ _____ _____    ______ ____
ROOT
ATOM      1  O   HOH     1      96.578  94.353 -52.239  0.00  0.00    +0.000 OA
ENDROOT
TORSDOF 0
REMARK  Name = ../refined-set-2016/5a7b/5a7b_pocket.pdb
REMARK  106 active torsions:
REMARK  status: ('A' for Active; 'I' for Inactive)
REMARK    1  A    between atoms: _1  and  _3
REMARK    2  A    between atoms: _3  and  _4
REMARK    3  A    between atoms: _3  and  _6
REMARK    4  A    between atoms: _6  and  _7
REMARK    5  A    between atoms: _12  and  _13
REMARK    6  A    between atoms: _15  and  _17
REMARK    7  A    between atoms: _17  and  _18
REMARK    8  A    between atoms: _17  and  _20
REMARK    9  A    between atoms: _20  and  _21
REMARK   10  A    between atoms: _27  and  _29
REMARK   11  A    between atoms: _29  and  _30
REMARK   12  A    between atoms: _29  and  _32
REMARK   13  A    between atoms: _32  and  _33
REMARK   14  A    between atoms: _33  and  _34
REMARK   15  A    between atoms: _34  and  _35
REMARK   16  A    between atoms: _44  and  _46
REMARK   17  A    between atoms: _46  and  _47
REMARK   18  A    between atoms: _46  and  _49
REMARK   19  A    between atoms: _49  and  _50
REMARK   20  A    between atoms: _50  and  _51
REMARK   21  A    between atoms: _56  and  _58
REMARK   22  A    between atoms: _58  and  _59
REMARK   23  A    between atoms: _58  and  _61
REMARK   24  A    between atoms: _61  and  _62
REMARK   25  A    between atoms: _65  and  _67
REMARK   26  A    between atoms: _67  and  _68
REMARK   27  A    between atoms: _67  and  _70
REMARK   28  A    between atoms: _70  and  _71
REMARK   29  A    between atoms: _81  and  _83
REMARK   30  A    between atoms: _83  and  _84
REMARK   31  A    between atoms: _83  and  _86
REMARK   32  A    between atoms: _89  and  _91
REMARK   33  A    between atoms: _91  and  _92
REMARK   34  A    between atoms: _91  and  _94
REMARK   35  A    between atoms: _94  and  _95
REMARK   36  A    between atoms: _98  and  _100
REMARK   37  A    between atoms: _100  and  _101
REMARK   38  A    between atoms: _100  and  _103
REMARK   39  A    between atoms: _103  and  _104
REMARK   40  A    between atoms: _106  and  _108
REMARK   41  A    between atoms: _108  and  _109
REMARK   42  A    between atoms: _108  and  _111
REMARK   43  A    between atoms: _111  and  _112
REMARK   44  A    between atoms: _116  and  _117
REMARK   45  A    between atoms: _123  and  _124
REMARK   46  A    between atoms: _130  and  _131
REMARK   47  A    between atoms: _136  and  _138
REMARK   48  A    between atoms: _138  and  _139
REMARK   49  A    between atoms: _141  and  _143
REMARK   50  A    between atoms: _143  and  _144
REMARK   51  A    between atoms: _143  and  _146
REMARK   52  A    between atoms: _146  and  _147
REMARK   53  A    between atoms: _150  and  _152
REMARK   54  A    between atoms: _152  and  _153
REMARK   55  A    between atoms: _152  and  _155
REMARK   56  A    between atoms: _155  and  _156
REMARK   57  A    between atoms: _156  and  _157
REMARK   58  A    between atoms: _157  and  _158
REMARK   59  A    between atoms: _167  and  _169
REMARK   60  A    between atoms: _169  and  _170
REMARK   61  A    between atoms: _169  and  _172
REMARK   62  A    between atoms: _175  and  _177
REMARK   63  A    between atoms: _177  and  _178
REMARK   64  A    between atoms: _177  and  _180
REMARK   65  A    between atoms: _180  and  _181
REMARK   66  A    between atoms: _181  and  _182
REMARK   67  A    between atoms: _182  and  _183
REMARK   68  A    between atoms: _193  and  _194
REMARK   69  A    between atoms: _199  and  _201
REMARK   70  A    between atoms: _201  and  _202
REMARK   71  A    between atoms: _201  and  _204
REMARK   72  A    between atoms: _206  and  _208
REMARK   73  A    between atoms: _208  and  _209
REMARK   74  A    between atoms: _208  and  _211
REMARK   75  A    between atoms: _211  and  _212
REMARK   76  A    between atoms: _212  and  _213
REMARK   77  A    between atoms: _217  and  _218
REMARK   78  A    between atoms: _224  and  _225
REMARK   79  A    between atoms: _230  and  _232
REMARK   80  A    between atoms: _232  and  _233
REMARK   81  A    between atoms: _232  and  _235
REMARK   82  A    between atoms: _235  and  _236
REMARK   83  A    between atoms: _236  and  _237
REMARK   84  A    between atoms: _240  and  _242
REMARK   85  A    between atoms: _242  and  _243
REMARK   86  A    between atoms: _242  and  _245
REMARK   87  A    between atoms: _245  and  _246
REMARK   88  A    between atoms: _248  and  _250
REMARK   89  A    between atoms: _250  and  _251
REMARK   90  A    between atoms: _250  and  _253
REMARK   91  A    between atoms: _253  and  _254
REMARK   92  A    between atoms: _257  and  _259
REMARK   93  A    between atoms: _259  and  _260
REMARK   94  A    between atoms: _259  and  _262
REMARK   95  A    between atoms: _264  and  _266
REMARK   96  A    between atoms: _266  and  _267
REMARK   97  A    between atoms: _266  and  _269
REMARK   98  A    between atoms: _269  and  _270
REMARK   99  A    between atoms: _273  and  _275
REMARK  100  A    between atoms: _275  and  _276
REMARK  101  A    between atoms: _275  and  _278
REMARK  102  A    between atoms: _278  and  _279
REMARK  103  A    between atoms: _282  and  _284
REMARK  104  A    between atoms: _284  and  _285
REMARK  105  A    between atoms: _284  and  _287
REMARK  106  A    between atoms: _287  and  _288
REMARK                            x       y       z     vdW  Elec       q    Type
REMARK                         _______ _______ _______ _____ _____    ______ ____
ROOT
ATOM      1  O   HOH     1      88.972  96.205 -48.968  0.00  0.00    +0.000 OA
ENDROOT
TORSDOF 0
REMARK  Name = ../refined-set-2016/5a7b/5a7b_pocket.pdb
REMARK  106 active torsions:
REMARK  status: ('A' for Active; 'I' for Inactive)
REMARK    1  A    between atoms: _1  and  _3
REMARK    2  A    between atoms: _3  and  _4
REMARK    3  A    between atoms: _3  and  _6
REMARK    4  A    between atoms: _6  and  _7
REMARK    5  A    between atoms: _12  and  _13
REMARK    6  A    between atoms: _15  and  _17
REMARK    7  A    between atoms: _17  and  _18
REMARK    8  A    between atoms: _17  and  _20
REMARK    9  A    between atoms: _20  and  _21
REMARK   10  A    between atoms: _27  and  _29
REMARK   11  A    between atoms: _29  and  _30
REMARK   12  A    between atoms: _29  and  _32
REMARK   13  A    between atoms: _32  and  _33
REMARK   14  A    between atoms: _33  and  _34
REMARK   15  A    between atoms: _34  and  _35
REMARK   16  A    between atoms: _44  and  _46
REMARK   17  A    between atoms: _46  and  _47
REMARK   18  A    between atoms: _46  and  _49
REMARK   19  A    between atoms: _49  and  _50
REMARK   20  A    between atoms: _50  and  _51
REMARK   21  A    between atoms: _56  and  _58
REMARK   22  A    between atoms: _58  and  _59
REMARK   23  A    between atoms: _58  and  _61
REMARK   24  A    between atoms: _61  and  _62
REMARK   25  A    between atoms: _65  and  _67
REMARK   26  A    between atoms: _67  and  _68
REMARK   27  A    between atoms: _67  and  _70
REMARK   28  A    between atoms: _70  and  _71
REMARK   29  A    between atoms: _81  and  _83
REMARK   30  A    between atoms: _83  and  _84
REMARK   31  A    between atoms: _83  and  _86
REMARK   32  A    between atoms: _89  and  _91
REMARK   33  A    between atoms: _91  and  _92
REMARK   34  A    between atoms: _91  and  _94
REMARK   35  A    between atoms: _94  and  _95
REMARK   36  A    between atoms: _98  and  _100
REMARK   37  A    between atoms: _100  and  _101
REMARK   38  A    between atoms: _100  and  _103
REMARK   39  A    between atoms: _103  and  _104
REMARK   40  A    between atoms: _106  and  _108
REMARK   41  A    between atoms: _108  and  _109
REMARK   42  A    between atoms: _108  and  _111
REMARK   43  A    between atoms: _111  and  _112
REMARK   44  A    between atoms: _116  and  _117
REMARK   45  A    between atoms: _123  and  _124
REMARK   46  A    between atoms: _130  and  _131
REMARK   47  A    between atoms: _136  and  _138
REMARK   48  A    between atoms: _138  and  _139
REMARK   49  A    between atoms: _141  and  _143
REMARK   50  A    between atoms: _143  and  _144
REMARK   51  A    between atoms: _143  and  _146
REMARK   52  A    between atoms: _146  and  _147
REMARK   53  A    between atoms: _150  and  _152
REMARK   54  A    between atoms: _152  and  _153
REMARK   55  A    between atoms: _152  and  _155
REMARK   56  A    between atoms: _155  and  _156
REMARK   57  A    between atoms: _156  and  _157
REMARK   58  A    between atoms: _157  and  _158
REMARK   59  A    between atoms: _167  and  _169
REMARK   60  A    between atoms: _169  and  _170
REMARK   61  A    between atoms: _169  and  _172
REMARK   62  A    between atoms: _175  and  _177
REMARK   63  A    between atoms: _177  and  _178
REMARK   64  A    between atoms: _177  and  _180
REMARK   65  A    between atoms: _180  and  _181
REMARK   66  A    between atoms: _181  and  _182
REMARK   67  A    between atoms: _182  and  _183
REMARK   68  A    between atoms: _193  and  _194
REMARK   69  A    between atoms: _199  and  _201
REMARK   70  A    between atoms: _201  and  _202
REMARK   71  A    between atoms: _201  and  _204
REMARK   72  A    between atoms: _206  and  _208
REMARK   73  A    between atoms: _208  and  _209
REMARK   74  A    between atoms: _208  and  _211
REMARK   75  A    between atoms: _211  and  _212
REMARK   76  A    between atoms: _212  and  _213
REMARK   77  A    between atoms: _217  and  _218
REMARK   78  A    between atoms: _224  and  _225
REMARK   79  A    between atoms: _230  and  _232
REMARK   80  A    between atoms: _232  and  _233
REMARK   81  A    between atoms: _232  and  _235
REMARK   82  A    between atoms: _235  and  _236
REMARK   83  A    between atoms: _236  and  _237
REMARK   84  A    between atoms: _240  and  _242
REMARK   85  A    between atoms: _242  and  _243
REMARK   86  A    between atoms: _242  and  _245
REMARK   87  A    between atoms: _245  and  _246
REMARK   88  A    between atoms: _248  and  _250
REMARK   89  A    between atoms: _250  and  _251
REMARK   90  A    between atoms: _250  and  _253
REMARK   91  A    between atoms: _253  and  _254
REMARK   92  A    between atoms: _257  and  _259
REMARK   93  A    between atoms: _259  and  _260
REMARK   94  A    between atoms: _259  and  _262
REMARK   95  A    between atoms: _264  and  _266
REMARK   96  A    between atoms: _266  and  _267
REMARK   97  A    between atoms: _266  and  _269
REMARK   98  A    between atoms: _269  and  _270
REMARK   99  A    between atoms: _273  and  _275
REMARK  100  A    between atoms: _275  and  _276
REMARK  101  A    between atoms: _275  and  _278
REMARK  102  A    between atoms: _278  and  _279
REMARK  103  A    between atoms: _282  and  _284
REMARK  104  A    between atoms: _284  and  _285
REMARK  105  A    between atoms: _284  and  _287
REMARK  106  A    between atoms: _287  and  _288
REMARK                            x       y       z     vdW  Elec       q    Type
REMARK                         _______ _______ _______ _____ _____    ______ ____
ROOT
ATOM      1  O   HOH     1      95.217  93.558 -54.240  0.00  0.00    +0.000 OA
ENDROOT
TORSDOF 0
REMARK  Name = ../refined-set-2016/5a7b/5a7b_pocket.pdb
REMARK  106 active torsions:
REMARK  status: ('A' for Active; 'I' for Inactive)
REMARK    1  A    between atoms: _1  and  _3
REMARK    2  A    between atoms: _3  and  _4
REMARK    3  A    between atoms: _3  and  _6
REMARK    4  A    between atoms: _6  and  _7
REMARK    5  A    between atoms: _12  and  _13
REMARK    6  A    between atoms: _15  and  _17
REMARK    7  A    between atoms: _17  and  _18
REMARK    8  A    between atoms: _17  and  _20
REMARK    9  A    between atoms: _20  and  _21
REMARK   10  A    between atoms: _27  and  _29
REMARK   11  A    between atoms: _29  and  _30
REMARK   12  A    between atoms: _29  and  _32
REMARK   13  A    between atoms: _32  and  _33
REMARK   14  A    between atoms: _33  and  _34
REMARK   15  A    between atoms: _34  and  _35
REMARK   16  A    between atoms: _44  and  _46
REMARK   17  A    between atoms: _46  and  _47
REMARK   18  A    between atoms: _46  and  _49
REMARK   19  A    between atoms: _49  and  _50
REMARK   20  A    between atoms: _50  and  _51
REMARK   21  A    between atoms: _56  and  _58
REMARK   22  A    between atoms: _58  and  _59
REMARK   23  A    between atoms: _58  and  _61
REMARK   24  A    between atoms: _61  and  _62
REMARK   25  A    between atoms: _65  and  _67
REMARK   26  A    between atoms: _67  and  _68
REMARK   27  A    between atoms: _67  and  _70
REMARK   28  A    between atoms: _70  and  _71
REMARK   29  A    between atoms: _81  and  _83
REMARK   30  A    between atoms: _83  and  _84
REMARK   31  A    between atoms: _83  and  _86
REMARK   32  A    between atoms: _89  and  _91
REMARK   33  A    between atoms: _91  and  _92
REMARK   34  A    between atoms: _91  and  _94
REMARK   35  A    between atoms: _94  and  _95
REMARK   36  A    between atoms: _98  and  _100
REMARK   37  A    between atoms: _100  and  _101
REMARK   38  A    between atoms: _100  and  _103
REMARK   39  A    between atoms: _103  and  _104
REMARK   40  A    between atoms: _106  and  _108
REMARK   41  A    between atoms: _108  and  _109
REMARK   42  A    between atoms: _108  and  _111
REMARK   43  A    between atoms: _111  and  _112
REMARK   44  A    between atoms: _116  and  _117
REMARK   45  A    between atoms: _123  and  _124
REMARK   46  A    between atoms: _130  and  _131
REMARK   47  A    between atoms: _136  and  _138
REMARK   48  A    between atoms: _138  and  _139
REMARK   49  A    between atoms: _141  and  _143
REMARK   50  A    between atoms: _143  and  _144
REMARK   51  A    between atoms: _143  and  _146
REMARK   52  A    between atoms: _146  and  _147
REMARK   53  A    between atoms: _150  and  _152
REMARK   54  A    between atoms: _152  and  _153
REMARK   55  A    between atoms: _152  and  _155
REMARK   56  A    between atoms: _155  and  _156
REMARK   57  A    between atoms: _156  and  _157
REMARK   58  A    between atoms: _157  and  _158
REMARK   59  A    between atoms: _167  and  _169
REMARK   60  A    between atoms: _169  and  _170
REMARK   61  A    between atoms: _169  and  _172
REMARK   62  A    between atoms: _175  and  _177
REMARK   63  A    between atoms: _177  and  _178
REMARK   64  A    between atoms: _177  and  _180
REMARK   65  A    between atoms: _180  and  _181
REMARK   66  A    between atoms: _181  and  _182
REMARK   67  A    between atoms: _182  and  _183
REMARK   68  A    between atoms: _193  and  _194
REMARK   69  A    between atoms: _199  and  _201
REMARK   70  A    between atoms: _201  and  _202
REMARK   71  A    between atoms: _201  and  _204
REMARK   72  A    between atoms: _206  and  _208
REMARK   73  A    between atoms: _208  and  _209
REMARK   74  A    between atoms: _208  and  _211
REMARK   75  A    between atoms: _211  and  _212
REMARK   76  A    between atoms: _212  and  _213
REMARK   77  A    between atoms: _217  and  _218
REMARK   78  A    between atoms: _224  and  _225
REMARK   79  A    between atoms: _230  and  _232
REMARK   80  A    between atoms: _232  and  _233
REMARK   81  A    between atoms: _232  and  _235
REMARK   82  A    between atoms: _235  and  _236
REMARK   83  A    between atoms: _236  and  _237
REMARK   84  A    between atoms: _240  and  _242
REMARK   85  A    between atoms: _242  and  _243
REMARK   86  A    between atoms: _242  and  _245
REMARK   87  A    between atoms: _245  and  _246
REMARK   88  A    between atoms: _248  and  _250
REMARK   89  A    between atoms: _250  and  _251
REMARK   90  A    between atoms: _250  and  _253
REMARK   91  A    between atoms: _253  and  _254
REMARK   92  A    between atoms: _257  and  _259
REMARK   93  A    between atoms: _259  and  _260
REMARK   94  A    between atoms: _259  and  _262
REMARK   95  A    between atoms: _264  and  _266
REMARK   96  A    between atoms: _266  and  _267
REMARK   97  A    between atoms: _266  and  _269
REMARK   98  A    between atoms: _269  and  _270
REMARK   99  A    between atoms: _273  and  _275
REMARK  100  A    between atoms: _275  and  _276
REMARK  101  A    between atoms: _275  and  _278
REMARK  102  A    between atoms: _278  and  _279
REMARK  103  A    between atoms: _282  and  _284
REMARK  104  A    between atoms: _284  and  _285
REMARK  105  A    between atoms: _284  and  _287
REMARK  106  A    between atoms: _287  and  _288
REMARK                            x       y       z     vdW  Elec       q    Type
REMARK                         _______ _______ _______ _____ _____    ______ ____
ROOT
ATOM      1  O   HOH     1      91.066  92.791 -55.045  0.00  0.00    +0.000 OA
ENDROOT
TORSDOF 0
REMARK  Name = ../refined-set-2016/5a7b/5a7b_pocket.pdb
REMARK  106 active torsions:
REMARK  status: ('A' for Active; 'I' for Inactive)
REMARK    1  A    between atoms: _1  and  _3
REMARK    2  A    between atoms: _3  and  _4
REMARK    3  A    between atoms: _3  and  _6
REMARK    4  A    between atoms: _6  and  _7
REMARK    5  A    between atoms: _12  and  _13
REMARK    6  A    between atoms: _15  and  _17
REMARK    7  A    between atoms: _17  and  _18
REMARK    8  A    between atoms: _17  and  _20
REMARK    9  A    between atoms: _20  and  _21
REMARK   10  A    between atoms: _27  and  _29
REMARK   11  A    between atoms: _29  and  _30
REMARK   12  A    between atoms: _29  and  _32
REMARK   13  A    between atoms: _32  and  _33
REMARK   14  A    between atoms: _33  and  _34
REMARK   15  A    between atoms: _34  and  _35
REMARK   16  A    between atoms: _44  and  _46
REMARK   17  A    between atoms: _46  and  _47
REMARK   18  A    between atoms: _46  and  _49
REMARK   19  A    between atoms: _49  and  _50
REMARK   20  A    between atoms: _50  and  _51
REMARK   21  A    between atoms: _56  and  _58
REMARK   22  A    between atoms: _58  and  _59
REMARK   23  A    between atoms: _58  and  _61
REMARK   24  A    between atoms: _61  and  _62
REMARK   25  A    between atoms: _65  and  _67
REMARK   26  A    between atoms: _67  and  _68
REMARK   27  A    between atoms: _67  and  _70
REMARK   28  A    between atoms: _70  and  _71
REMARK   29  A    between atoms: _81  and  _83
REMARK   30  A    between atoms: _83  and  _84
REMARK   31  A    between atoms: _83  and  _86
REMARK   32  A    between atoms: _89  and  _91
REMARK   33  A    between atoms: _91  and  _92
REMARK   34  A    between atoms: _91  and  _94
REMARK   35  A    between atoms: _94  and  _95
REMARK   36  A    between atoms: _98  and  _100
REMARK   37  A    between atoms: _100  and  _101
REMARK   38  A    between atoms: _100  and  _103
REMARK   39  A    between atoms: _103  and  _104
REMARK   40  A    between atoms: _106  and  _108
REMARK   41  A    between atoms: _108  and  _109
REMARK   42  A    between atoms: _108  and  _111
REMARK   43  A    between atoms: _111  and  _112
REMARK   44  A    between atoms: _116  and  _117
REMARK   45  A    between atoms: _123  and  _124
REMARK   46  A    between atoms: _130  and  _131
REMARK   47  A    between atoms: _136  and  _138
REMARK   48  A    between atoms: _138  and  _139
REMARK   49  A    between atoms: _141  and  _143
REMARK   50  A    between atoms: _143  and  _144
REMARK   51  A    between atoms: _143  and  _146
REMARK   52  A    between atoms: _146  and  _147
REMARK   53  A    between atoms: _150  and  _152
REMARK   54  A    between atoms: _152  and  _153
REMARK   55  A    between atoms: _152  and  _155
REMARK   56  A    between atoms: _155  and  _156
REMARK   57  A    between atoms: _156  and  _157
REMARK   58  A    between atoms: _157  and  _158
REMARK   59  A    between atoms: _167  and  _169
REMARK   60  A    between atoms: _169  and  _170
REMARK   61  A    between atoms: _169  and  _172
REMARK   62  A    between atoms: _175  and  _177
REMARK   63  A    between atoms: _177  and  _178
REMARK   64  A    between atoms: _177  and  _180
REMARK   65  A    between atoms: _180  and  _181
REMARK   66  A    between atoms: _181  and  _182
REMARK   67  A    between atoms: _182  and  _183
REMARK   68  A    between atoms: _193  and  _194
REMARK   69  A    between atoms: _199  and  _201
REMARK   70  A    between atoms: _201  and  _202
REMARK   71  A    between atoms: _201  and  _204
REMARK   72  A    between atoms: _206  and  _208
REMARK   73  A    between atoms: _208  and  _209
REMARK   74  A    between atoms: _208  and  _211
REMARK   75  A    between atoms: _211  and  _212
REMARK   76  A    between atoms: _212  and  _213
REMARK   77  A    between atoms: _217  and  _218
REMARK   78  A    between atoms: _224  and  _225
REMARK   79  A    between atoms: _230  and  _232
REMARK   80  A    between atoms: _232  and  _233
REMARK   81  A    between atoms: _232  and  _235
REMARK   82  A    between atoms: _235  and  _236
REMARK   83  A    between atoms: _236  and  _237
REMARK   84  A    between atoms: _240  and  _242
REMARK   85  A    between atoms: _242  and  _243
REMARK   86  A    between atoms: _242  and  _245
REMARK   87  A    between atoms: _245  and  _246
REMARK   88  A    between atoms: _248  and  _250
REMARK   89  A    between atoms: _250  and  _251
REMARK   90  A    between atoms: _250  and  _253
REMARK   91  A    between atoms: _253  and  _254
REMARK   92  A    between atoms: _257  and  _259
REMARK   93  A    between atoms: _259  and  _260
REMARK   94  A    between atoms: _259  and  _262
REMARK   95  A    between atoms: _264  and  _266
REMARK   96  A    between atoms: _266  and  _267
REMARK   97  A    between atoms: _266  and  _269
REMARK   98  A    between atoms: _269  and  _270
REMARK   99  A    between atoms: _273  and  _275
REMARK  100  A    between atoms: _275  and  _276
REMARK  101  A    between atoms: _275  and  _278
REMARK  102  A    between atoms: _278  and  _279
REMARK  103  A    between atoms: _282  and  _284
REMARK  104  A    between atoms: _284  and  _285
REMARK  105  A    between atoms: _284  and  _287
REMARK  106  A    between atoms: _287  and  _288
REMARK                            x       y       z     vdW  Elec       q    Type
REMARK                         _______ _______ _______ _____ _____    ______ ____
ROOT
ATOM      1  O   HOH     1      93.034  93.542 -52.553  0.00  0.00    +0.000 OA
ENDROOT
TORSDOF 0
REMARK  Name = ../refined-set-2016/5a7b/5a7b_pocket.pdb
REMARK  106 active torsions:
REMARK  status: ('A' for Active; 'I' for Inactive)
REMARK    1  A    between atoms: _1  and  _3
REMARK    2  A    between atoms: _3  and  _4
REMARK    3  A    between atoms: _3  and  _6
REMARK    4  A    between atoms: _6  and  _7
REMARK    5  A    between atoms: _12  and  _13
REMARK    6  A    between atoms: _15  and  _17
REMARK    7  A    between atoms: _17  and  _18
REMARK    8  A    between atoms: _17  and  _20
REMARK    9  A    between atoms: _20  and  _21
REMARK   10  A    between atoms: _27  and  _29
REMARK   11  A    between atoms: _29  and  _30
REMARK   12  A    between atoms: _29  and  _32
REMARK   13  A    between atoms: _32  and  _33
REMARK   14  A    between atoms: _33  and  _34
REMARK   15  A    between atoms: _34  and  _35
REMARK   16  A    between atoms: _44  and  _46
REMARK   17  A    between atoms: _46  and  _47
REMARK   18  A    between atoms: _46  and  _49
REMARK   19  A    between atoms: _49  and  _50
REMARK   20  A    between atoms: _50  and  _51
REMARK   21  A    between atoms: _56  and  _58
REMARK   22  A    between atoms: _58  and  _59
REMARK   23  A    between atoms: _58  and  _61
REMARK   24  A    between atoms: _61  and  _62
REMARK   25  A    between atoms: _65  and  _67
REMARK   26  A    between atoms: _67  and  _68
REMARK   27  A    between atoms: _67  and  _70
REMARK   28  A    between atoms: _70  and  _71
REMARK   29  A    between atoms: _81  and  _83
REMARK   30  A    between atoms: _83  and  _84
REMARK   31  A    between atoms: _83  and  _86
REMARK   32  A    between atoms: _89  and  _91
REMARK   33  A    between atoms: _91  and  _92
REMARK   34  A    between atoms: _91  and  _94
REMARK   35  A    between atoms: _94  and  _95
REMARK   36  A    between atoms: _98  and  _100
REMARK   37  A    between atoms: _100  and  _101
REMARK   38  A    between atoms: _100  and  _103
REMARK   39  A    between atoms: _103  and  _104
REMARK   40  A    between atoms: _106  and  _108
REMARK   41  A    between atoms: _108  and  _109
REMARK   42  A    between atoms: _108  and  _111
REMARK   43  A    between atoms: _111  and  _112
REMARK   44  A    between atoms: _116  and  _117
REMARK   45  A    between atoms: _123  and  _124
REMARK   46  A    between atoms: _130  and  _131
REMARK   47  A    between atoms: _136  and  _138
REMARK   48  A    between atoms: _138  and  _139
REMARK   49  A    between atoms: _141  and  _143
REMARK   50  A    between atoms: _143  and  _144
REMARK   51  A    between atoms: _143  and  _146
REMARK   52  A    between atoms: _146  and  _147
REMARK   53  A    between atoms: _150  and  _152
REMARK   54  A    between atoms: _152  and  _153
REMARK   55  A    between atoms: _152  and  _155
REMARK   56  A    between atoms: _155  and  _156
REMARK   57  A    between atoms: _156  and  _157
REMARK   58  A    between atoms: _157  and  _158
REMARK   59  A    between atoms: _167  and  _169
REMARK   60  A    between atoms: _169  and  _170
REMARK   61  A    between atoms: _169  and  _172
REMARK   62  A    between atoms: _175  and  _177
REMARK   63  A    between atoms: _177  and  _178
REMARK   64  A    between atoms: _177  and  _180
REMARK   65  A    between atoms: _180  and  _181
REMARK   66  A    between atoms: _181  and  _182
REMARK   67  A    between atoms: _182  and  _183
REMARK   68  A    between atoms: _193  and  _194
REMARK   69  A    between atoms: _199  and  _201
REMARK   70  A    between atoms: _201  and  _202
REMARK   71  A    between atoms: _201  and  _204
REMARK   72  A    between atoms: _206  and  _208
REMARK   73  A    between atoms: _208  and  _209
REMARK   74  A    between atoms: _208  and  _211
REMARK   75  A    between atoms: _211  and  _212
REMARK   76  A    between atoms: _212  and  _213
REMARK   77  A    between atoms: _217  and  _218
REMARK   78  A    between atoms: _224  and  _225
REMARK   79  A    between atoms: _230  and  _232
REMARK   80  A    between atoms: _232  and  _233
REMARK   81  A    between atoms: _232  and  _235
REMARK   82  A    between atoms: _235  and  _236
REMARK   83  A    between atoms: _236  and  _237
REMARK   84  A    between atoms: _240  and  _242
REMARK   85  A    between atoms: _242  and  _243
REMARK   86  A    between atoms: _242  and  _245
REMARK   87  A    between atoms: _245  and  _246
REMARK   88  A    between atoms: _248  and  _250
REMARK   89  A    between atoms: _250  and  _251
REMARK   90  A    between atoms: _250  and  _253
REMARK   91  A    between atoms: _253  and  _254
REMARK   92  A    between atoms: _257  and  _259
REMARK   93  A    between atoms: _259  and  _260
REMARK   94  A    between atoms: _259  and  _262
REMARK   95  A    between atoms: _264  and  _266
REMARK   96  A    between atoms: _266  and  _267
REMARK   97  A    between atoms: _266  and  _269
REMARK   98  A    between atoms: _269  and  _270
REMARK   99  A    between atoms: _273  and  _275
REMARK  100  A    between atoms: _275  and  _276
REMARK  101  A    between atoms: _275  and  _278
REMARK  102  A    between atoms: _278  and  _279
REMARK  103  A    between atoms: _282  and  _284
REMARK  104  A    between atoms: _284  and  _285
REMARK  105  A    between atoms: _284  and  _287
REMARK  106  A    between atoms: _287  and  _288
REMARK                            x       y       z     vdW  Elec       q    Type
REMARK                         _______ _______ _______ _____ _____    ______ ____
ROOT
ATOM      1  O   HOH     1      92.518  86.880 -56.798  0.00  0.00    +0.000 OA
ENDROOT
TORSDOF 0
REMARK  Name = ../refined-set-2016/5a7b/5a7b_pocket.pdb
REMARK  106 active torsions:
REMARK  status: ('A' for Active; 'I' for Inactive)
REMARK    1  A    between atoms: _1  and  _3
REMARK    2  A    between atoms: _3  and  _4
REMARK    3  A    between atoms: _3  and  _6
REMARK    4  A    between atoms: _6  and  _7
REMARK    5  A    between atoms: _12  and  _13
REMARK    6  A    between atoms: _15  and  _17
REMARK    7  A    between atoms: _17  and  _18
REMARK    8  A    between atoms: _17  and  _20
REMARK    9  A    between atoms: _20  and  _21
REMARK   10  A    between atoms: _27  and  _29
REMARK   11  A    between atoms: _29  and  _30
REMARK   12  A    between atoms: _29  and  _32
REMARK   13  A    between atoms: _32  and  _33
REMARK   14  A    between atoms: _33  and  _34
REMARK   15  A    between atoms: _34  and  _35
REMARK   16  A    between atoms: _44  and  _46
REMARK   17  A    between atoms: _46  and  _47
REMARK   18  A    between atoms: _46  and  _49
REMARK   19  A    between atoms: _49  and  _50
REMARK   20  A    between atoms: _50  and  _51
REMARK   21  A    between atoms: _56  and  _58
REMARK   22  A    between atoms: _58  and  _59
REMARK   23  A    between atoms: _58  and  _61
REMARK   24  A    between atoms: _61  and  _62
REMARK   25  A    between atoms: _65  and  _67
REMARK   26  A    between atoms: _67  and  _68
REMARK   27  A    between atoms: _67  and  _70
REMARK   28  A    between atoms: _70  and  _71
REMARK   29  A    between atoms: _81  and  _83
REMARK   30  A    between atoms: _83  and  _84
REMARK   31  A    between atoms: _83  and  _86
REMARK   32  A    between atoms: _89  and  _91
REMARK   33  A    between atoms: _91  and  _92
REMARK   34  A    between atoms: _91  and  _94
REMARK   35  A    between atoms: _94  and  _95
REMARK   36  A    between atoms: _98  and  _100
REMARK   37  A    between atoms: _100  and  _101
REMARK   38  A    between atoms: _100  and  _103
REMARK   39  A    between atoms: _103  and  _104
REMARK   40  A    between atoms: _106  and  _108
REMARK   41  A    between atoms: _108  and  _109
REMARK   42  A    between atoms: _108  and  _111
REMARK   43  A    between atoms: _111  and  _112
REMARK   44  A    between atoms: _116  and  _117
REMARK   45  A    between atoms: _123  and  _124
REMARK   46  A    between atoms: _130  and  _131
REMARK   47  A    between atoms: _136  and  _138
REMARK   48  A    between atoms: _138  and  _139
REMARK   49  A    between atoms: _141  and  _143
REMARK   50  A    between atoms: _143  and  _144
REMARK   51  A    between atoms: _143  and  _146
REMARK   52  A    between atoms: _146  and  _147
REMARK   53  A    between atoms: _150  and  _152
REMARK   54  A    between atoms: _152  and  _153
REMARK   55  A    between atoms: _152  and  _155
REMARK   56  A    between atoms: _155  and  _156
REMARK   57  A    between atoms: _156  and  _157
REMARK   58  A    between atoms: _157  and  _158
REMARK   59  A    between atoms: _167  and  _169
REMARK   60  A    between atoms: _169  and  _170
REMARK   61  A    between atoms: _169  and  _172
REMARK   62  A    between atoms: _175  and  _177
REMARK   63  A    between atoms: _177  and  _178
REMARK   64  A    between atoms: _177  and  _180
REMARK   65  A    between atoms: _180  and  _181
REMARK   66  A    between atoms: _181  and  _182
REMARK   67  A    between atoms: _182  and  _183
REMARK   68  A    between atoms: _193  and  _194
REMARK   69  A    between atoms: _199  and  _201
REMARK   70  A    between atoms: _201  and  _202
REMARK   71  A    between atoms: _201  and  _204
REMARK   72  A    between atoms: _206  and  _208
REMARK   73  A    between atoms: _208  and  _209
REMARK   74  A    between atoms: _208  and  _211
REMARK   75  A    between atoms: _211  and  _212
REMARK   76  A    between atoms: _212  and  _213
REMARK   77  A    between atoms: _217  and  _218
REMARK   78  A    between atoms: _224  and  _225
REMARK   79  A    between atoms: _230  and  _232
REMARK   80  A    between atoms: _232  and  _233
REMARK   81  A    between atoms: _232  and  _235
REMARK   82  A    between atoms: _235  and  _236
REMARK   83  A    between atoms: _236  and  _237
REMARK   84  A    between atoms: _240  and  _242
REMARK   85  A    between atoms: _242  and  _243
REMARK   86  A    between atoms: _242  and  _245
REMARK   87  A    between atoms: _245  and  _246
REMARK   88  A    between atoms: _248  and  _250
REMARK   89  A    between atoms: _250  and  _251
REMARK   90  A    between atoms: _250  and  _253
REMARK   91  A    between atoms: _253  and  _254
REMARK   92  A    between atoms: _257  and  _259
REMARK   93  A    between atoms: _259  and  _260
REMARK   94  A    between atoms: _259  and  _262
REMARK   95  A    between atoms: _264  and  _266
REMARK   96  A    between atoms: _266  and  _267
REMARK   97  A    between atoms: _266  and  _269
REMARK   98  A    between atoms: _269  and  _270
REMARK   99  A    between atoms: _273  and  _275
REMARK  100  A    between atoms: _275  and  _276
REMARK  101  A    between atoms: _275  and  _278
REMARK  102  A    between atoms: _278  and  _279
REMARK  103  A    between atoms: _282  and  _284
REMARK  104  A    between atoms: _284  and  _285
REMARK  105  A    between atoms: _284  and  _287
REMARK  106  A    between atoms: _287  and  _288
REMARK                            x       y       z     vdW  Elec       q    Type
REMARK                         _______ _______ _______ _____ _____    ______ ____
ROOT
ATOM      1  O   HOH     1      94.847  86.940 -55.338  0.00  0.00    +0.000 OA
ENDROOT
TORSDOF 0
REMARK  Name = ../refined-set-2016/5a7b/5a7b_pocket.pdb
REMARK  106 active torsions:
REMARK  status: ('A' for Active; 'I' for Inactive)
REMARK    1  A    between atoms: _1  and  _3
REMARK    2  A    between atoms: _3  and  _4
REMARK    3  A    between atoms: _3  and  _6
REMARK    4  A    between atoms: _6  and  _7
REMARK    5  A    between atoms: _12  and  _13
REMARK    6  A    between atoms: _15  and  _17
REMARK    7  A    between atoms: _17  and  _18
REMARK    8  A    between atoms: _17  and  _20
REMARK    9  A    between atoms: _20  and  _21
REMARK   10  A    between atoms: _27  and  _29
REMARK   11  A    between atoms: _29  and  _30
REMARK   12  A    between atoms: _29  and  _32
REMARK   13  A    between atoms: _32  and  _33
REMARK   14  A    between atoms: _33  and  _34
REMARK   15  A    between atoms: _34  and  _35
REMARK   16  A    between atoms: _44  and  _46
REMARK   17  A    between atoms: _46  and  _47
REMARK   18  A    between atoms: _46  and  _49
REMARK   19  A    between atoms: _49  and  _50
REMARK   20  A    between atoms: _50  and  _51
REMARK   21  A    between atoms: _56  and  _58
REMARK   22  A    between atoms: _58  and  _59
REMARK   23  A    between atoms: _58  and  _61
REMARK   24  A    between atoms: _61  and  _62
REMARK   25  A    between atoms: _65  and  _67
REMARK   26  A    between atoms: _67  and  _68
REMARK   27  A    between atoms: _67  and  _70
REMARK   28  A    between atoms: _70  and  _71
REMARK   29  A    between atoms: _81  and  _83
REMARK   30  A    between atoms: _83  and  _84
REMARK   31  A    between atoms: _83  and  _86
REMARK   32  A    between atoms: _89  and  _91
REMARK   33  A    between atoms: _91  and  _92
REMARK   34  A    between atoms: _91  and  _94
REMARK   35  A    between atoms: _94  and  _95
REMARK   36  A    between atoms: _98  and  _100
REMARK   37  A    between atoms: _100  and  _101
REMARK   38  A    between atoms: _100  and  _103
REMARK   39  A    between atoms: _103  and  _104
REMARK   40  A    between atoms: _106  and  _108
REMARK   41  A    between atoms: _108  and  _109
REMARK   42  A    between atoms: _108  and  _111
REMARK   43  A    between atoms: _111  and  _112
REMARK   44  A    between atoms: _116  and  _117
REMARK   45  A    between atoms: _123  and  _124
REMARK   46  A    between atoms: _130  and  _131
REMARK   47  A    between atoms: _136  and  _138
REMARK   48  A    between atoms: _138  and  _139
REMARK   49  A    between atoms: _141  and  _143
REMARK   50  A    between atoms: _143  and  _144
REMARK   51  A    between atoms: _143  and  _146
REMARK   52  A    between atoms: _146  and  _147
REMARK   53  A    between atoms: _150  and  _152
REMARK   54  A    between atoms: _152  and  _153
REMARK   55  A    between atoms: _152  and  _155
REMARK   56  A    between atoms: _155  and  _156
REMARK   57  A    between atoms: _156  and  _157
REMARK   58  A    between atoms: _157  and  _158
REMARK   59  A    between atoms: _167  and  _169
REMARK   60  A    between atoms: _169  and  _170
REMARK   61  A    between atoms: _169  and  _172
REMARK   62  A    between atoms: _175  and  _177
REMARK   63  A    between atoms: _177  and  _178
REMARK   64  A    between atoms: _177  and  _180
REMARK   65  A    between atoms: _180  and  _181
REMARK   66  A    between atoms: _181  and  _182
REMARK   67  A    between atoms: _182  and  _183
REMARK   68  A    between atoms: _193  and  _194
REMARK   69  A    between atoms: _199  and  _201
REMARK   70  A    between atoms: _201  and  _202
REMARK   71  A    between atoms: _201  and  _204
REMARK   72  A    between atoms: _206  and  _208
REMARK   73  A    between atoms: _208  and  _209
REMARK   74  A    between atoms: _208  and  _211
REMARK   75  A    between atoms: _211  and  _212
REMARK   76  A    between atoms: _212  and  _213
REMARK   77  A    between atoms: _217  and  _218
REMARK   78  A    between atoms: _224  and  _225
REMARK   79  A    between atoms: _230  and  _232
REMARK   80  A    between atoms: _232  and  _233
REMARK   81  A    between atoms: _232  and  _235
REMARK   82  A    between atoms: _235  and  _236
REMARK   83  A    between atoms: _236  and  _237
REMARK   84  A    between atoms: _240  and  _242
REMARK   85  A    between atoms: _242  and  _243
REMARK   86  A    between atoms: _242  and  _245
REMARK   87  A    between atoms: _245  and  _246
REMARK   88  A    between atoms: _248  and  _250
REMARK   89  A    between atoms: _250  and  _251
REMARK   90  A    between atoms: _250  and  _253
REMARK   91  A    between atoms: _253  and  _254
REMARK   92  A    between atoms: _257  and  _259
REMARK   93  A    between atoms: _259  and  _260
REMARK   94  A    between atoms: _259  and  _262
REMARK   95  A    between atoms: _264  and  _266
REMARK   96  A    between atoms: _266  and  _267
REMARK   97  A    between atoms: _266  and  _269
REMARK   98  A    between atoms: _269  and  _270
REMARK   99  A    between atoms: _273  and  _275
REMARK  100  A    between atoms: _275  and  _276
REMARK  101  A    between atoms: _275  and  _278
REMARK  102  A    between atoms: _278  and  _279
REMARK  103  A    between atoms: _282  and  _284
REMARK  104  A    between atoms: _284  and  _285
REMARK  105  A    between atoms: _284  and  _287
REMARK  106  A    between atoms: _287  and  _288
REMARK                            x       y       z     vdW  Elec       q    Type
REMARK                         _______ _______ _______ _____ _____    ______ ____
ROOT
ATOM      1  O   HOH     1      91.671  86.488 -48.497  0.00  0.00    +0.000 OA
ENDROOT
TORSDOF 0
REMARK  Name = ../refined-set-2016/5a7b/5a7b_pocket.pdb
REMARK  106 active torsions:
REMARK  status: ('A' for Active; 'I' for Inactive)
REMARK    1  A    between atoms: _1  and  _3
REMARK    2  A    between atoms: _3  and  _4
REMARK    3  A    between atoms: _3  and  _6
REMARK    4  A    between atoms: _6  and  _7
REMARK    5  A    between atoms: _12  and  _13
REMARK    6  A    between atoms: _15  and  _17
REMARK    7  A    between atoms: _17  and  _18
REMARK    8  A    between atoms: _17  and  _20
REMARK    9  A    between atoms: _20  and  _21
REMARK   10  A    between atoms: _27  and  _29
REMARK   11  A    between atoms: _29  and  _30
REMARK   12  A    between atoms: _29  and  _32
REMARK   13  A    between atoms: _32  and  _33
REMARK   14  A    between atoms: _33  and  _34
REMARK   15  A    between atoms: _34  and  _35
REMARK   16  A    between atoms: _44  and  _46
REMARK   17  A    between atoms: _46  and  _47
REMARK   18  A    between atoms: _46  and  _49
REMARK   19  A    between atoms: _49  and  _50
REMARK   20  A    between atoms: _50  and  _51
REMARK   21  A    between atoms: _56  and  _58
REMARK   22  A    between atoms: _58  and  _59
REMARK   23  A    between atoms: _58  and  _61
REMARK   24  A    between atoms: _61  and  _62
REMARK   25  A    between atoms: _65  and  _67
REMARK   26  A    between atoms: _67  and  _68
REMARK   27  A    between atoms: _67  and  _70
REMARK   28  A    between atoms: _70  and  _71
REMARK   29  A    between atoms: _81  and  _83
REMARK   30  A    between atoms: _83  and  _84
REMARK   31  A    between atoms: _83  and  _86
REMARK   32  A    between atoms: _89  and  _91
REMARK   33  A    between atoms: _91  and  _92
REMARK   34  A    between atoms: _91  and  _94
REMARK   35  A    between atoms: _94  and  _95
REMARK   36  A    between atoms: _98  and  _100
REMARK   37  A    between atoms: _100  and  _101
REMARK   38  A    between atoms: _100  and  _103
REMARK   39  A    between atoms: _103  and  _104
REMARK   40  A    between atoms: _106  and  _108
REMARK   41  A    between atoms: _108  and  _109
REMARK   42  A    between atoms: _108  and  _111
REMARK   43  A    between atoms: _111  and  _112
REMARK   44  A    between atoms: _116  and  _117
REMARK   45  A    between atoms: _123  and  _124
REMARK   46  A    between atoms: _130  and  _131
REMARK   47  A    between atoms: _136  and  _138
REMARK   48  A    between atoms: _138  and  _139
REMARK   49  A    between atoms: _141  and  _143
REMARK   50  A    between atoms: _143  and  _144
REMARK   51  A    between atoms: _143  and  _146
REMARK   52  A    between atoms: _146  and  _147
REMARK   53  A    between atoms: _150  and  _152
REMARK   54  A    between atoms: _152  and  _153
REMARK   55  A    between atoms: _152  and  _155
REMARK   56  A    between atoms: _155  and  _156
REMARK   57  A    between atoms: _156  and  _157
REMARK   58  A    between atoms: _157  and  _158
REMARK   59  A    between atoms: _167  and  _169
REMARK   60  A    between atoms: _169  and  _170
REMARK   61  A    between atoms: _169  and  _172
REMARK   62  A    between atoms: _175  and  _177
REMARK   63  A    between atoms: _177  and  _178
REMARK   64  A    between atoms: _177  and  _180
REMARK   65  A    between atoms: _180  and  _181
REMARK   66  A    between atoms: _181  and  _182
REMARK   67  A    between atoms: _182  and  _183
REMARK   68  A    between atoms: _193  and  _194
REMARK   69  A    between atoms: _199  and  _201
REMARK   70  A    between atoms: _201  and  _202
REMARK   71  A    between atoms: _201  and  _204
REMARK   72  A    between atoms: _206  and  _208
REMARK   73  A    between atoms: _208  and  _209
REMARK   74  A    between atoms: _208  and  _211
REMARK   75  A    between atoms: _211  and  _212
REMARK   76  A    between atoms: _212  and  _213
REMARK   77  A    between atoms: _217  and  _218
REMARK   78  A    between atoms: _224  and  _225
REMARK   79  A    between atoms: _230  and  _232
REMARK   80  A    between atoms: _232  and  _233
REMARK   81  A    between atoms: _232  and  _235
REMARK   82  A    between atoms: _235  and  _236
REMARK   83  A    between atoms: _236  and  _237
REMARK   84  A    between atoms: _240  and  _242
REMARK   85  A    between atoms: _242  and  _243
REMARK   86  A    between atoms: _242  and  _245
REMARK   87  A    between atoms: _245  and  _246
REMARK   88  A    between atoms: _248  and  _250
REMARK   89  A    between atoms: _250  and  _251
REMARK   90  A    between atoms: _250  and  _253
REMARK   91  A    between atoms: _253  and  _254
REMARK   92  A    between atoms: _257  and  _259
REMARK   93  A    between atoms: _259  and  _260
REMARK   94  A    between atoms: _259  and  _262
REMARK   95  A    between atoms: _264  and  _266
REMARK   96  A    between atoms: _266  and  _267
REMARK   97  A    between atoms: _266  and  _269
REMARK   98  A    between atoms: _269  and  _270
REMARK   99  A    between atoms: _273  and  _275
REMARK  100  A    between atoms: _275  and  _276
REMARK  101  A    between atoms: _275  and  _278
REMARK  102  A    between atoms: _278  and  _279
REMARK  103  A    between atoms: _282  and  _284
REMARK  104  A    between atoms: _284  and  _285
REMARK  105  A    between atoms: _284  and  _287
REMARK  106  A    between atoms: _287  and  _288
REMARK                            x       y       z     vdW  Elec       q    Type
REMARK                         _______ _______ _______ _____ _____    ______ ____
ROOT
ATOM      1  O   HOH     1      92.179  84.278 -47.968  0.00  0.00    +0.000 OA
ENDROOT
TORSDOF 0
REMARK  Name = ../refined-set-2016/5a7b/5a7b_pocket.pdb
REMARK  106 active torsions:
REMARK  status: ('A' for Active; 'I' for Inactive)
REMARK    1  A    between atoms: _1  and  _3
REMARK    2  A    between atoms: _3  and  _4
REMARK    3  A    between atoms: _3  and  _6
REMARK    4  A    between atoms: _6  and  _7
REMARK    5  A    between atoms: _12  and  _13
REMARK    6  A    between atoms: _15  and  _17
REMARK    7  A    between atoms: _17  and  _18
REMARK    8  A    between atoms: _17  and  _20
REMARK    9  A    between atoms: _20  and  _21
REMARK   10  A    between atoms: _27  and  _29
REMARK   11  A    between atoms: _29  and  _30
REMARK   12  A    between atoms: _29  and  _32
REMARK   13  A    between atoms: _32  and  _33
REMARK   14  A    between atoms: _33  and  _34
REMARK   15  A    between atoms: _34  and  _35
REMARK   16  A    between atoms: _44  and  _46
REMARK   17  A    between atoms: _46  and  _47
REMARK   18  A    between atoms: _46  and  _49
REMARK   19  A    between atoms: _49  and  _50
REMARK   20  A    between atoms: _50  and  _51
REMARK   21  A    between atoms: _56  and  _58
REMARK   22  A    between atoms: _58  and  _59
REMARK   23  A    between atoms: _58  and  _61
REMARK   24  A    between atoms: _61  and  _62
REMARK   25  A    between atoms: _65  and  _67
REMARK   26  A    between atoms: _67  and  _68
REMARK   27  A    between atoms: _67  and  _70
REMARK   28  A    between atoms: _70  and  _71
REMARK   29  A    between atoms: _81  and  _83
REMARK   30  A    between atoms: _83  and  _84
REMARK   31  A    between atoms: _83  and  _86
REMARK   32  A    between atoms: _89  and  _91
REMARK   33  A    between atoms: _91  and  _92
REMARK   34  A    between atoms: _91  and  _94
REMARK   35  A    between atoms: _94  and  _95
REMARK   36  A    between atoms: _98  and  _100
REMARK   37  A    between atoms: _100  and  _101
REMARK   38  A    between atoms: _100  and  _103
REMARK   39  A    between atoms: _103  and  _104
REMARK   40  A    between atoms: _106  and  _108
REMARK   41  A    between atoms: _108  and  _109
REMARK   42  A    between atoms: _108  and  _111
REMARK   43  A    between atoms: _111  and  _112
REMARK   44  A    between atoms: _116  and  _117
REMARK   45  A    between atoms: _123  and  _124
REMARK   46  A    between atoms: _130  and  _131
REMARK   47  A    between atoms: _136  and  _138
REMARK   48  A    between atoms: _138  and  _139
REMARK   49  A    between atoms: _141  and  _143
REMARK   50  A    between atoms: _143  and  _144
REMARK   51  A    between atoms: _143  and  _146
REMARK   52  A    between atoms: _146  and  _147
REMARK   53  A    between atoms: _150  and  _152
REMARK   54  A    between atoms: _152  and  _153
REMARK   55  A    between atoms: _152  and  _155
REMARK   56  A    between atoms: _155  and  _156
REMARK   57  A    between atoms: _156  and  _157
REMARK   58  A    between atoms: _157  and  _158
REMARK   59  A    between atoms: _167  and  _169
REMARK   60  A    between atoms: _169  and  _170
REMARK   61  A    between atoms: _169  and  _172
REMARK   62  A    between atoms: _175  and  _177
REMARK   63  A    between atoms: _177  and  _178
REMARK   64  A    between atoms: _177  and  _180
REMARK   65  A    between atoms: _180  and  _181
REMARK   66  A    between atoms: _181  and  _182
REMARK   67  A    between atoms: _182  and  _183
REMARK   68  A    between atoms: _193  and  _194
REMARK   69  A    between atoms: _199  and  _201
REMARK   70  A    between atoms: _201  and  _202
REMARK   71  A    between atoms: _201  and  _204
REMARK   72  A    between atoms: _206  and  _208
REMARK   73  A    between atoms: _208  and  _209
REMARK   74  A    between atoms: _208  and  _211
REMARK   75  A    between atoms: _211  and  _212
REMARK   76  A    between atoms: _212  and  _213
REMARK   77  A    between atoms: _217  and  _218
REMARK   78  A    between atoms: _224  and  _225
REMARK   79  A    between atoms: _230  and  _232
REMARK   80  A    between atoms: _232  and  _233
REMARK   81  A    between atoms: _232  and  _235
REMARK   82  A    between atoms: _235  and  _236
REMARK   83  A    between atoms: _236  and  _237
REMARK   84  A    between atoms: _240  and  _242
REMARK   85  A    between atoms: _242  and  _243
REMARK   86  A    between atoms: _242  and  _245
REMARK   87  A    between atoms: _245  and  _246
REMARK   88  A    between atoms: _248  and  _250
REMARK   89  A    between atoms: _250  and  _251
REMARK   90  A    between atoms: _250  and  _253
REMARK   91  A    between atoms: _253  and  _254
REMARK   92  A    between atoms: _257  and  _259
REMARK   93  A    between atoms: _259  and  _260
REMARK   94  A    between atoms: _259  and  _262
REMARK   95  A    between atoms: _264  and  _266
REMARK   96  A    between atoms: _266  and  _267
REMARK   97  A    between atoms: _266  and  _269
REMARK   98  A    between atoms: _269  and  _270
REMARK   99  A    between atoms: _273  and  _275
REMARK  100  A    between atoms: _275  and  _276
REMARK  101  A    between atoms: _275  and  _278
REMARK  102  A    between atoms: _278  and  _279
REMARK  103  A    between atoms: _282  and  _284
REMARK  104  A    between atoms: _284  and  _285
REMARK  105  A    between atoms: _284  and  _287
REMARK  106  A    between atoms: _287  and  _288
REMARK                            x       y       z     vdW  Elec       q    Type
REMARK                         _______ _______ _______ _____ _____    ______ ____
ROOT
ATOM      1  O   HOH     1      90.627  84.319 -52.918  0.00  0.00    +0.000 OA
ENDROOT
TORSDOF 0
REMARK  Name = ../refined-set-2016/5a7b/5a7b_pocket.pdb
REMARK  106 active torsions:
REMARK  status: ('A' for Active; 'I' for Inactive)
REMARK    1  A    between atoms: _1  and  _3
REMARK    2  A    between atoms: _3  and  _4
REMARK    3  A    between atoms: _3  and  _6
REMARK    4  A    between atoms: _6  and  _7
REMARK    5  A    between atoms: _12  and  _13
REMARK    6  A    between atoms: _15  and  _17
REMARK    7  A    between atoms: _17  and  _18
REMARK    8  A    between atoms: _17  and  _20
REMARK    9  A    between atoms: _20  and  _21
REMARK   10  A    between atoms: _27  and  _29
REMARK   11  A    between atoms: _29  and  _30
REMARK   12  A    between atoms: _29  and  _32
REMARK   13  A    between atoms: _32  and  _33
REMARK   14  A    between atoms: _33  and  _34
REMARK   15  A    between atoms: _34  and  _35
REMARK   16  A    between atoms: _44  and  _46
REMARK   17  A    between atoms: _46  and  _47
REMARK   18  A    between atoms: _46  and  _49
REMARK   19  A    between atoms: _49  and  _50
REMARK   20  A    between atoms: _50  and  _51
REMARK   21  A    between atoms: _56  and  _58
REMARK   22  A    between atoms: _58  and  _59
REMARK   23  A    between atoms: _58  and  _61
REMARK   24  A    between atoms: _61  and  _62
REMARK   25  A    between atoms: _65  and  _67
REMARK   26  A    between atoms: _67  and  _68
REMARK   27  A    between atoms: _67  and  _70
REMARK   28  A    between atoms: _70  and  _71
REMARK   29  A    between atoms: _81  and  _83
REMARK   30  A    between atoms: _83  and  _84
REMARK   31  A    between atoms: _83  and  _86
REMARK   32  A    between atoms: _89  and  _91
REMARK   33  A    between atoms: _91  and  _92
REMARK   34  A    between atoms: _91  and  _94
REMARK   35  A    between atoms: _94  and  _95
REMARK   36  A    between atoms: _98  and  _100
REMARK   37  A    between atoms: _100  and  _101
REMARK   38  A    between atoms: _100  and  _103
REMARK   39  A    between atoms: _103  and  _104
REMARK   40  A    between atoms: _106  and  _108
REMARK   41  A    between atoms: _108  and  _109
REMARK   42  A    between atoms: _108  and  _111
REMARK   43  A    between atoms: _111  and  _112
REMARK   44  A    between atoms: _116  and  _117
REMARK   45  A    between atoms: _123  and  _124
REMARK   46  A    between atoms: _130  and  _131
REMARK   47  A    between atoms: _136  and  _138
REMARK   48  A    between atoms: _138  and  _139
REMARK   49  A    between atoms: _141  and  _143
REMARK   50  A    between atoms: _143  and  _144
REMARK   51  A    between atoms: _143  and  _146
REMARK   52  A    between atoms: _146  and  _147
REMARK   53  A    between atoms: _150  and  _152
REMARK   54  A    between atoms: _152  and  _153
REMARK   55  A    between atoms: _152  and  _155
REMARK   56  A    between atoms: _155  and  _156
REMARK   57  A    between atoms: _156  and  _157
REMARK   58  A    between atoms: _157  and  _158
REMARK   59  A    between atoms: _167  and  _169
REMARK   60  A    between atoms: _169  and  _170
REMARK   61  A    between atoms: _169  and  _172
REMARK   62  A    between atoms: _175  and  _177
REMARK   63  A    between atoms: _177  and  _178
REMARK   64  A    between atoms: _177  and  _180
REMARK   65  A    between atoms: _180  and  _181
REMARK   66  A    between atoms: _181  and  _182
REMARK   67  A    between atoms: _182  and  _183
REMARK   68  A    between atoms: _193  and  _194
REMARK   69  A    between atoms: _199  and  _201
REMARK   70  A    between atoms: _201  and  _202
REMARK   71  A    between atoms: _201  and  _204
REMARK   72  A    between atoms: _206  and  _208
REMARK   73  A    between atoms: _208  and  _209
REMARK   74  A    between atoms: _208  and  _211
REMARK   75  A    between atoms: _211  and  _212
REMARK   76  A    between atoms: _212  and  _213
REMARK   77  A    between atoms: _217  and  _218
REMARK   78  A    between atoms: _224  and  _225
REMARK   79  A    between atoms: _230  and  _232
REMARK   80  A    between atoms: _232  and  _233
REMARK   81  A    between atoms: _232  and  _235
REMARK   82  A    between atoms: _235  and  _236
REMARK   83  A    between atoms: _236  and  _237
REMARK   84  A    between atoms: _240  and  _242
REMARK   85  A    between atoms: _242  and  _243
REMARK   86  A    between atoms: _242  and  _245
REMARK   87  A    between atoms: _245  and  _246
REMARK   88  A    between atoms: _248  and  _250
REMARK   89  A    between atoms: _250  and  _251
REMARK   90  A    between atoms: _250  and  _253
REMARK   91  A    between atoms: _253  and  _254
REMARK   92  A    between atoms: _257  and  _259
REMARK   93  A    between atoms: _259  and  _260
REMARK   94  A    between atoms: _259  and  _262
REMARK   95  A    between atoms: _264  and  _266
REMARK   96  A    between atoms: _266  and  _267
REMARK   97  A    between atoms: _266  and  _269
REMARK   98  A    between atoms: _269  and  _270
REMARK   99  A    between atoms: _273  and  _275
REMARK  100  A    between atoms: _275  and  _276
REMARK  101  A    between atoms: _275  and  _278
REMARK  102  A    between atoms: _278  and  _279
REMARK  103  A    between atoms: _282  and  _284
REMARK  104  A    between atoms: _284  and  _285
REMARK  105  A    between atoms: _284  and  _287
REMARK  106  A    between atoms: _287  and  _288
REMARK                            x       y       z     vdW  Elec       q    Type
REMARK                         _______ _______ _______ _____ _____    ______ ____
ROOT
ATOM      1  O   HOH     1      90.533  87.301 -41.118  0.00  0.00    +0.000 OA
ENDROOT
TORSDOF 0
REMARK  Name = ../refined-set-2016/5a7b/5a7b_pocket.pdb
REMARK  106 active torsions:
REMARK  status: ('A' for Active; 'I' for Inactive)
REMARK    1  A    between atoms: _1  and  _3
REMARK    2  A    between atoms: _3  and  _4
REMARK    3  A    between atoms: _3  and  _6
REMARK    4  A    between atoms: _6  and  _7
REMARK    5  A    between atoms: _12  and  _13
REMARK    6  A    between atoms: _15  and  _17
REMARK    7  A    between atoms: _17  and  _18
REMARK    8  A    between atoms: _17  and  _20
REMARK    9  A    between atoms: _20  and  _21
REMARK   10  A    between atoms: _27  and  _29
REMARK   11  A    between atoms: _29  and  _30
REMARK   12  A    between atoms: _29  and  _32
REMARK   13  A    between atoms: _32  and  _33
REMARK   14  A    between atoms: _33  and  _34
REMARK   15  A    between atoms: _34  and  _35
REMARK   16  A    between atoms: _44  and  _46
REMARK   17  A    between atoms: _46  and  _47
REMARK   18  A    between atoms: _46  and  _49
REMARK   19  A    between atoms: _49  and  _50
REMARK   20  A    between atoms: _50  and  _51
REMARK   21  A    between atoms: _56  and  _58
REMARK   22  A    between atoms: _58  and  _59
REMARK   23  A    between atoms: _58  and  _61
REMARK   24  A    between atoms: _61  and  _62
REMARK   25  A    between atoms: _65  and  _67
REMARK   26  A    between atoms: _67  and  _68
REMARK   27  A    between atoms: _67  and  _70
REMARK   28  A    between atoms: _70  and  _71
REMARK   29  A    between atoms: _81  and  _83
REMARK   30  A    between atoms: _83  and  _84
REMARK   31  A    between atoms: _83  and  _86
REMARK   32  A    between atoms: _89  and  _91
REMARK   33  A    between atoms: _91  and  _92
REMARK   34  A    between atoms: _91  and  _94
REMARK   35  A    between atoms: _94  and  _95
REMARK   36  A    between atoms: _98  and  _100
REMARK   37  A    between atoms: _100  and  _101
REMARK   38  A    between atoms: _100  and  _103
REMARK   39  A    between atoms: _103  and  _104
REMARK   40  A    between atoms: _106  and  _108
REMARK   41  A    between atoms: _108  and  _109
REMARK   42  A    between atoms: _108  and  _111
REMARK   43  A    between atoms: _111  and  _112
REMARK   44  A    between atoms: _116  and  _117
REMARK   45  A    between atoms: _123  and  _124
REMARK   46  A    between atoms: _130  and  _131
REMARK   47  A    between atoms: _136  and  _138
REMARK   48  A    between atoms: _138  and  _139
REMARK   49  A    between atoms: _141  and  _143
REMARK   50  A    between atoms: _143  and  _144
REMARK   51  A    between atoms: _143  and  _146
REMARK   52  A    between atoms: _146  and  _147
REMARK   53  A    between atoms: _150  and  _152
REMARK   54  A    between atoms: _152  and  _153
REMARK   55  A    between atoms: _152  and  _155
REMARK   56  A    between atoms: _155  and  _156
REMARK   57  A    between atoms: _156  and  _157
REMARK   58  A    between atoms: _157  and  _158
REMARK   59  A    between atoms: _167  and  _169
REMARK   60  A    between atoms: _169  and  _170
REMARK   61  A    between atoms: _169  and  _172
REMARK   62  A    between atoms: _175  and  _177
REMARK   63  A    between atoms: _177  and  _178
REMARK   64  A    between atoms: _177  and  _180
REMARK   65  A    between atoms: _180  and  _181
REMARK   66  A    between atoms: _181  and  _182
REMARK   67  A    between atoms: _182  and  _183
REMARK   68  A    between atoms: _193  and  _194
REMARK   69  A    between atoms: _199  and  _201
REMARK   70  A    between atoms: _201  and  _202
REMARK   71  A    between atoms: _201  and  _204
REMARK   72  A    between atoms: _206  and  _208
REMARK   73  A    between atoms: _208  and  _209
REMARK   74  A    between atoms: _208  and  _211
REMARK   75  A    between atoms: _211  and  _212
REMARK   76  A    between atoms: _212  and  _213
REMARK   77  A    between atoms: _217  and  _218
REMARK   78  A    between atoms: _224  and  _225
REMARK   79  A    between atoms: _230  and  _232
REMARK   80  A    between atoms: _232  and  _233
REMARK   81  A    between atoms: _232  and  _235
REMARK   82  A    between atoms: _235  and  _236
REMARK   83  A    between atoms: _236  and  _237
REMARK   84  A    between atoms: _240  and  _242
REMARK   85  A    between atoms: _242  and  _243
REMARK   86  A    between atoms: _242  and  _245
REMARK   87  A    between atoms: _245  and  _246
REMARK   88  A    between atoms: _248  and  _250
REMARK   89  A    between atoms: _250  and  _251
REMARK   90  A    between atoms: _250  and  _253
REMARK   91  A    between atoms: _253  and  _254
REMARK   92  A    between atoms: _257  and  _259
REMARK   93  A    between atoms: _259  and  _260
REMARK   94  A    between atoms: _259  and  _262
REMARK   95  A    between atoms: _264  and  _266
REMARK   96  A    between atoms: _266  and  _267
REMARK   97  A    between atoms: _266  and  _269
REMARK   98  A    between atoms: _269  and  _270
REMARK   99  A    between atoms: _273  and  _275
REMARK  100  A    between atoms: _275  and  _276
REMARK  101  A    between atoms: _275  and  _278
REMARK  102  A    between atoms: _278  and  _279
REMARK  103  A    between atoms: _282  and  _284
REMARK  104  A    between atoms: _284  and  _285
REMARK  105  A    between atoms: _284  and  _287
REMARK  106  A    between atoms: _287  and  _288
REMARK                            x       y       z     vdW  Elec       q    Type
REMARK                         _______ _______ _______ _____ _____    ______ ____
ROOT
ATOM      1  O   HOH     1      91.129  90.007 -41.853  0.00  0.00    +0.000 OA
ENDROOT
TORSDOF 0
REMARK  Name = ../refined-set-2016/5a7b/5a7b_pocket.pdb
REMARK  106 active torsions:
REMARK  status: ('A' for Active; 'I' for Inactive)
REMARK    1  A    between atoms: _1  and  _3
REMARK    2  A    between atoms: _3  and  _4
REMARK    3  A    between atoms: _3  and  _6
REMARK    4  A    between atoms: _6  and  _7
REMARK    5  A    between atoms: _12  and  _13
REMARK    6  A    between atoms: _15  and  _17
REMARK    7  A    between atoms: _17  and  _18
REMARK    8  A    between atoms: _17  and  _20
REMARK    9  A    between atoms: _20  and  _21
REMARK   10  A    between atoms: _27  and  _29
REMARK   11  A    between atoms: _29  and  _30
REMARK   12  A    between atoms: _29  and  _32
REMARK   13  A    between atoms: _32  and  _33
REMARK   14  A    between atoms: _33  and  _34
REMARK   15  A    between atoms: _34  and  _35
REMARK   16  A    between atoms: _44  and  _46
REMARK   17  A    between atoms: _46  and  _47
REMARK   18  A    between atoms: _46  and  _49
REMARK   19  A    between atoms: _49  and  _50
REMARK   20  A    between atoms: _50  and  _51
REMARK   21  A    between atoms: _56  and  _58
REMARK   22  A    between atoms: _58  and  _59
REMARK   23  A    between atoms: _58  and  _61
REMARK   24  A    between atoms: _61  and  _62
REMARK   25  A    between atoms: _65  and  _67
REMARK   26  A    between atoms: _67  and  _68
REMARK   27  A    between atoms: _67  and  _70
REMARK   28  A    between atoms: _70  and  _71
REMARK   29  A    between atoms: _81  and  _83
REMARK   30  A    between atoms: _83  and  _84
REMARK   31  A    between atoms: _83  and  _86
REMARK   32  A    between atoms: _89  and  _91
REMARK   33  A    between atoms: _91  and  _92
REMARK   34  A    between atoms: _91  and  _94
REMARK   35  A    between atoms: _94  and  _95
REMARK   36  A    between atoms: _98  and  _100
REMARK   37  A    between atoms: _100  and  _101
REMARK   38  A    between atoms: _100  and  _103
REMARK   39  A    between atoms: _103  and  _104
REMARK   40  A    between atoms: _106  and  _108
REMARK   41  A    between atoms: _108  and  _109
REMARK   42  A    between atoms: _108  and  _111
REMARK   43  A    between atoms: _111  and  _112
REMARK   44  A    between atoms: _116  and  _117
REMARK   45  A    between atoms: _123  and  _124
REMARK   46  A    between atoms: _130  and  _131
REMARK   47  A    between atoms: _136  and  _138
REMARK   48  A    between atoms: _138  and  _139
REMARK   49  A    between atoms: _141  and  _143
REMARK   50  A    between atoms: _143  and  _144
REMARK   51  A    between atoms: _143  and  _146
REMARK   52  A    between atoms: _146  and  _147
REMARK   53  A    between atoms: _150  and  _152
REMARK   54  A    between atoms: _152  and  _153
REMARK   55  A    between atoms: _152  and  _155
REMARK   56  A    between atoms: _155  and  _156
REMARK   57  A    between atoms: _156  and  _157
REMARK   58  A    between atoms: _157  and  _158
REMARK   59  A    between atoms: _167  and  _169
REMARK   60  A    between atoms: _169  and  _170
REMARK   61  A    between atoms: _169  and  _172
REMARK   62  A    between atoms: _175  and  _177
REMARK   63  A    between atoms: _177  and  _178
REMARK   64  A    between atoms: _177  and  _180
REMARK   65  A    between atoms: _180  and  _181
REMARK   66  A    between atoms: _181  and  _182
REMARK   67  A    between atoms: _182  and  _183
REMARK   68  A    between atoms: _193  and  _194
REMARK   69  A    between atoms: _199  and  _201
REMARK   70  A    between atoms: _201  and  _202
REMARK   71  A    between atoms: _201  and  _204
REMARK   72  A    between atoms: _206  and  _208
REMARK   73  A    between atoms: _208  and  _209
REMARK   74  A    between atoms: _208  and  _211
REMARK   75  A    between atoms: _211  and  _212
REMARK   76  A    between atoms: _212  and  _213
REMARK   77  A    between atoms: _217  and  _218
REMARK   78  A    between atoms: _224  and  _225
REMARK   79  A    between atoms: _230  and  _232
REMARK   80  A    between atoms: _232  and  _233
REMARK   81  A    between atoms: _232  and  _235
REMARK   82  A    between atoms: _235  and  _236
REMARK   83  A    between atoms: _236  and  _237
REMARK   84  A    between atoms: _240  and  _242
REMARK   85  A    between atoms: _242  and  _243
REMARK   86  A    between atoms: _242  and  _245
REMARK   87  A    between atoms: _245  and  _246
REMARK   88  A    between atoms: _248  and  _250
REMARK   89  A    between atoms: _250  and  _251
REMARK   90  A    between atoms: _250  and  _253
REMARK   91  A    between atoms: _253  and  _254
REMARK   92  A    between atoms: _257  and  _259
REMARK   93  A    between atoms: _259  and  _260
REMARK   94  A    between atoms: _259  and  _262
REMARK   95  A    between atoms: _264  and  _266
REMARK   96  A    between atoms: _266  and  _267
REMARK   97  A    between atoms: _266  and  _269
REMARK   98  A    between atoms: _269  and  _270
REMARK   99  A    between atoms: _273  and  _275
REMARK  100  A    between atoms: _275  and  _276
REMARK  101  A    between atoms: _275  and  _278
REMARK  102  A    between atoms: _278  and  _279
REMARK  103  A    between atoms: _282  and  _284
REMARK  104  A    between atoms: _284  and  _285
REMARK  105  A    between atoms: _284  and  _287
REMARK  106  A    between atoms: _287  and  _288
REMARK                            x       y       z     vdW  Elec       q    Type
REMARK                         _______ _______ _______ _____ _____    ______ ____
ROOT
ATOM      1  O   HOH     1      84.338  90.654 -45.494  0.00  0.00    +0.000 OA
ENDROOT
TORSDOF 0
REMARK  Name = ../refined-set-2016/5a7b/5a7b_pocket.pdb
REMARK  106 active torsions:
REMARK  status: ('A' for Active; 'I' for Inactive)
REMARK    1  A    between atoms: _1  and  _3
REMARK    2  A    between atoms: _3  and  _4
REMARK    3  A    between atoms: _3  and  _6
REMARK    4  A    between atoms: _6  and  _7
REMARK    5  A    between atoms: _12  and  _13
REMARK    6  A    between atoms: _15  and  _17
REMARK    7  A    between atoms: _17  and  _18
REMARK    8  A    between atoms: _17  and  _20
REMARK    9  A    between atoms: _20  and  _21
REMARK   10  A    between atoms: _27  and  _29
REMARK   11  A    between atoms: _29  and  _30
REMARK   12  A    between atoms: _29  and  _32
REMARK   13  A    between atoms: _32  and  _33
REMARK   14  A    between atoms: _33  and  _34
REMARK   15  A    between atoms: _34  and  _35
REMARK   16  A    between atoms: _44  and  _46
REMARK   17  A    between atoms: _46  and  _47
REMARK   18  A    between atoms: _46  and  _49
REMARK   19  A    between atoms: _49  and  _50
REMARK   20  A    between atoms: _50  and  _51
REMARK   21  A    between atoms: _56  and  _58
REMARK   22  A    between atoms: _58  and  _59
REMARK   23  A    between atoms: _58  and  _61
REMARK   24  A    between atoms: _61  and  _62
REMARK   25  A    between atoms: _65  and  _67
REMARK   26  A    between atoms: _67  and  _68
REMARK   27  A    between atoms: _67  and  _70
REMARK   28  A    between atoms: _70  and  _71
REMARK   29  A    between atoms: _81  and  _83
REMARK   30  A    between atoms: _83  and  _84
REMARK   31  A    between atoms: _83  and  _86
REMARK   32  A    between atoms: _89  and  _91
REMARK   33  A    between atoms: _91  and  _92
REMARK   34  A    between atoms: _91  and  _94
REMARK   35  A    between atoms: _94  and  _95
REMARK   36  A    between atoms: _98  and  _100
REMARK   37  A    between atoms: _100  and  _101
REMARK   38  A    between atoms: _100  and  _103
REMARK   39  A    between atoms: _103  and  _104
REMARK   40  A    between atoms: _106  and  _108
REMARK   41  A    between atoms: _108  and  _109
REMARK   42  A    between atoms: _108  and  _111
REMARK   43  A    between atoms: _111  and  _112
REMARK   44  A    between atoms: _116  and  _117
REMARK   45  A    between atoms: _123  and  _124
REMARK   46  A    between atoms: _130  and  _131
REMARK   47  A    between atoms: _136  and  _138
REMARK   48  A    between atoms: _138  and  _139
REMARK   49  A    between atoms: _141  and  _143
REMARK   50  A    between atoms: _143  and  _144
REMARK   51  A    between atoms: _143  and  _146
REMARK   52  A    between atoms: _146  and  _147
REMARK   53  A    between atoms: _150  and  _152
REMARK   54  A    between atoms: _152  and  _153
REMARK   55  A    between atoms: _152  and  _155
REMARK   56  A    between atoms: _155  and  _156
REMARK   57  A    between atoms: _156  and  _157
REMARK   58  A    between atoms: _157  and  _158
REMARK   59  A    between atoms: _167  and  _169
REMARK   60  A    between atoms: _169  and  _170
REMARK   61  A    between atoms: _169  and  _172
REMARK   62  A    between atoms: _175  and  _177
REMARK   63  A    between atoms: _177  and  _178
REMARK   64  A    between atoms: _177  and  _180
REMARK   65  A    between atoms: _180  and  _181
REMARK   66  A    between atoms: _181  and  _182
REMARK   67  A    between atoms: _182  and  _183
REMARK   68  A    between atoms: _193  and  _194
REMARK   69  A    between atoms: _199  and  _201
REMARK   70  A    between atoms: _201  and  _202
REMARK   71  A    between atoms: _201  and  _204
REMARK   72  A    between atoms: _206  and  _208
REMARK   73  A    between atoms: _208  and  _209
REMARK   74  A    between atoms: _208  and  _211
REMARK   75  A    between atoms: _211  and  _212
REMARK   76  A    between atoms: _212  and  _213
REMARK   77  A    between atoms: _217  and  _218
REMARK   78  A    between atoms: _224  and  _225
REMARK   79  A    between atoms: _230  and  _232
REMARK   80  A    between atoms: _232  and  _233
REMARK   81  A    between atoms: _232  and  _235
REMARK   82  A    between atoms: _235  and  _236
REMARK   83  A    between atoms: _236  and  _237
REMARK   84  A    between atoms: _240  and  _242
REMARK   85  A    between atoms: _242  and  _243
REMARK   86  A    between atoms: _242  and  _245
REMARK   87  A    between atoms: _245  and  _246
REMARK   88  A    between atoms: _248  and  _250
REMARK   89  A    between atoms: _250  and  _251
REMARK   90  A    between atoms: _250  and  _253
REMARK   91  A    between atoms: _253  and  _254
REMARK   92  A    between atoms: _257  and  _259
REMARK   93  A    between atoms: _259  and  _260
REMARK   94  A    between atoms: _259  and  _262
REMARK   95  A    between atoms: _264  and  _266
REMARK   96  A    between atoms: _266  and  _267
REMARK   97  A    between atoms: _266  and  _269
REMARK   98  A    between atoms: _269  and  _270
REMARK   99  A    between atoms: _273  and  _275
REMARK  100  A    between atoms: _275  and  _276
REMARK  101  A    between atoms: _275  and  _278
REMARK  102  A    between atoms: _278  and  _279
REMARK  103  A    between atoms: _282  and  _284
REMARK  104  A    between atoms: _284  and  _285
REMARK  105  A    between atoms: _284  and  _287
REMARK  106  A    between atoms: _287  and  _288
REMARK                            x       y       z     vdW  Elec       q    Type
REMARK                         _______ _______ _______ _____ _____    ______ ____
ROOT
ATOM      1  O   HOH     1      84.800  93.389 -38.656  0.00  0.00    +0.000 OA
ENDROOT
TORSDOF 0
REMARK  Name = ../refined-set-2016/5a7b/5a7b_pocket.pdb
REMARK  106 active torsions:
REMARK  status: ('A' for Active; 'I' for Inactive)
REMARK    1  A    between atoms: _1  and  _3
REMARK    2  A    between atoms: _3  and  _4
REMARK    3  A    between atoms: _3  and  _6
REMARK    4  A    between atoms: _6  and  _7
REMARK    5  A    between atoms: _12  and  _13
REMARK    6  A    between atoms: _15  and  _17
REMARK    7  A    between atoms: _17  and  _18
REMARK    8  A    between atoms: _17  and  _20
REMARK    9  A    between atoms: _20  and  _21
REMARK   10  A    between atoms: _27  and  _29
REMARK   11  A    between atoms: _29  and  _30
REMARK   12  A    between atoms: _29  and  _32
REMARK   13  A    between atoms: _32  and  _33
REMARK   14  A    between atoms: _33  and  _34
REMARK   15  A    between atoms: _34  and  _35
REMARK   16  A    between atoms: _44  and  _46
REMARK   17  A    between atoms: _46  and  _47
REMARK   18  A    between atoms: _46  and  _49
REMARK   19  A    between atoms: _49  and  _50
REMARK   20  A    between atoms: _50  and  _51
REMARK   21  A    between atoms: _56  and  _58
REMARK   22  A    between atoms: _58  and  _59
REMARK   23  A    between atoms: _58  and  _61
REMARK   24  A    between atoms: _61  and  _62
REMARK   25  A    between atoms: _65  and  _67
REMARK   26  A    between atoms: _67  and  _68
REMARK   27  A    between atoms: _67  and  _70
REMARK   28  A    between atoms: _70  and  _71
REMARK   29  A    between atoms: _81  and  _83
REMARK   30  A    between atoms: _83  and  _84
REMARK   31  A    between atoms: _83  and  _86
REMARK   32  A    between atoms: _89  and  _91
REMARK   33  A    between atoms: _91  and  _92
REMARK   34  A    between atoms: _91  and  _94
REMARK   35  A    between atoms: _94  and  _95
REMARK   36  A    between atoms: _98  and  _100
REMARK   37  A    between atoms: _100  and  _101
REMARK   38  A    between atoms: _100  and  _103
REMARK   39  A    between atoms: _103  and  _104
REMARK   40  A    between atoms: _106  and  _108
REMARK   41  A    between atoms: _108  and  _109
REMARK   42  A    between atoms: _108  and  _111
REMARK   43  A    between atoms: _111  and  _112
REMARK   44  A    between atoms: _116  and  _117
REMARK   45  A    between atoms: _123  and  _124
REMARK   46  A    between atoms: _130  and  _131
REMARK   47  A    between atoms: _136  and  _138
REMARK   48  A    between atoms: _138  and  _139
REMARK   49  A    between atoms: _141  and  _143
REMARK   50  A    between atoms: _143  and  _144
REMARK   51  A    between atoms: _143  and  _146
REMARK   52  A    between atoms: _146  and  _147
REMARK   53  A    between atoms: _150  and  _152
REMARK   54  A    between atoms: _152  and  _153
REMARK   55  A    between atoms: _152  and  _155
REMARK   56  A    between atoms: _155  and  _156
REMARK   57  A    between atoms: _156  and  _157
REMARK   58  A    between atoms: _157  and  _158
REMARK   59  A    between atoms: _167  and  _169
REMARK   60  A    between atoms: _169  and  _170
REMARK   61  A    between atoms: _169  and  _172
REMARK   62  A    between atoms: _175  and  _177
REMARK   63  A    between atoms: _177  and  _178
REMARK   64  A    between atoms: _177  and  _180
REMARK   65  A    between atoms: _180  and  _181
REMARK   66  A    between atoms: _181  and  _182
REMARK   67  A    between atoms: _182  and  _183
REMARK   68  A    between atoms: _193  and  _194
REMARK   69  A    between atoms: _199  and  _201
REMARK   70  A    between atoms: _201  and  _202
REMARK   71  A    between atoms: _201  and  _204
REMARK   72  A    between atoms: _206  and  _208
REMARK   73  A    between atoms: _208  and  _209
REMARK   74  A    between atoms: _208  and  _211
REMARK   75  A    between atoms: _211  and  _212
REMARK   76  A    between atoms: _212  and  _213
REMARK   77  A    between atoms: _217  and  _218
REMARK   78  A    between atoms: _224  and  _225
REMARK   79  A    between atoms: _230  and  _232
REMARK   80  A    between atoms: _232  and  _233
REMARK   81  A    between atoms: _232  and  _235
REMARK   82  A    between atoms: _235  and  _236
REMARK   83  A    between atoms: _236  and  _237
REMARK   84  A    between atoms: _240  and  _242
REMARK   85  A    between atoms: _242  and  _243
REMARK   86  A    between atoms: _242  and  _245
REMARK   87  A    between atoms: _245  and  _246
REMARK   88  A    between atoms: _248  and  _250
REMARK   89  A    between atoms: _250  and  _251
REMARK   90  A    between atoms: _250  and  _253
REMARK   91  A    between atoms: _253  and  _254
REMARK   92  A    between atoms: _257  and  _259
REMARK   93  A    between atoms: _259  and  _260
REMARK   94  A    between atoms: _259  and  _262
REMARK   95  A    between atoms: _264  and  _266
REMARK   96  A    between atoms: _266  and  _267
REMARK   97  A    between atoms: _266  and  _269
REMARK   98  A    between atoms: _269  and  _270
REMARK   99  A    between atoms: _273  and  _275
REMARK  100  A    between atoms: _275  and  _276
REMARK  101  A    between atoms: _275  and  _278
REMARK  102  A    between atoms: _278  and  _279
REMARK  103  A    between atoms: _282  and  _284
REMARK  104  A    between atoms: _284  and  _285
REMARK  105  A    between atoms: _284  and  _287
REMARK  106  A    between atoms: _287  and  _288
REMARK                            x       y       z     vdW  Elec       q    Type
REMARK                         _______ _______ _______ _____ _____    ______ ____
ROOT
ATOM      1  O   HOH     1      84.448  98.830 -43.045  0.00  0.00    +0.000 OA
ENDROOT
TORSDOF 0
REMARK  Name = ../refined-set-2016/5a7b/5a7b_pocket.pdb
REMARK  106 active torsions:
REMARK  status: ('A' for Active; 'I' for Inactive)
REMARK    1  A    between atoms: _1  and  _3
REMARK    2  A    between atoms: _3  and  _4
REMARK    3  A    between atoms: _3  and  _6
REMARK    4  A    between atoms: _6  and  _7
REMARK    5  A    between atoms: _12  and  _13
REMARK    6  A    between atoms: _15  and  _17
REMARK    7  A    between atoms: _17  and  _18
REMARK    8  A    between atoms: _17  and  _20
REMARK    9  A    between atoms: _20  and  _21
REMARK   10  A    between atoms: _27  and  _29
REMARK   11  A    between atoms: _29  and  _30
REMARK   12  A    between atoms: _29  and  _32
REMARK   13  A    between atoms: _32  and  _33
REMARK   14  A    between atoms: _33  and  _34
REMARK   15  A    between atoms: _34  and  _35
REMARK   16  A    between atoms: _44  and  _46
REMARK   17  A    between atoms: _46  and  _47
REMARK   18  A    between atoms: _46  and  _49
REMARK   19  A    between atoms: _49  and  _50
REMARK   20  A    between atoms: _50  and  _51
REMARK   21  A    between atoms: _56  and  _58
REMARK   22  A    between atoms: _58  and  _59
REMARK   23  A    between atoms: _58  and  _61
REMARK   24  A    between atoms: _61  and  _62
REMARK   25  A    between atoms: _65  and  _67
REMARK   26  A    between atoms: _67  and  _68
REMARK   27  A    between atoms: _67  and  _70
REMARK   28  A    between atoms: _70  and  _71
REMARK   29  A    between atoms: _81  and  _83
REMARK   30  A    between atoms: _83  and  _84
REMARK   31  A    between atoms: _83  and  _86
REMARK   32  A    between atoms: _89  and  _91
REMARK   33  A    between atoms: _91  and  _92
REMARK   34  A    between atoms: _91  and  _94
REMARK   35  A    between atoms: _94  and  _95
REMARK   36  A    between atoms: _98  and  _100
REMARK   37  A    between atoms: _100  and  _101
REMARK   38  A    between atoms: _100  and  _103
REMARK   39  A    between atoms: _103  and  _104
REMARK   40  A    between atoms: _106  and  _108
REMARK   41  A    between atoms: _108  and  _109
REMARK   42  A    between atoms: _108  and  _111
REMARK   43  A    between atoms: _111  and  _112
REMARK   44  A    between atoms: _116  and  _117
REMARK   45  A    between atoms: _123  and  _124
REMARK   46  A    between atoms: _130  and  _131
REMARK   47  A    between atoms: _136  and  _138
REMARK   48  A    between atoms: _138  and  _139
REMARK   49  A    between atoms: _141  and  _143
REMARK   50  A    between atoms: _143  and  _144
REMARK   51  A    between atoms: _143  and  _146
REMARK   52  A    between atoms: _146  and  _147
REMARK   53  A    between atoms: _150  and  _152
REMARK   54  A    between atoms: _152  and  _153
REMARK   55  A    between atoms: _152  and  _155
REMARK   56  A    between atoms: _155  and  _156
REMARK   57  A    between atoms: _156  and  _157
REMARK   58  A    between atoms: _157  and  _158
REMARK   59  A    between atoms: _167  and  _169
REMARK   60  A    between atoms: _169  and  _170
REMARK   61  A    between atoms: _169  and  _172
REMARK   62  A    between atoms: _175  and  _177
REMARK   63  A    between atoms: _177  and  _178
REMARK   64  A    between atoms: _177  and  _180
REMARK   65  A    between atoms: _180  and  _181
REMARK   66  A    between atoms: _181  and  _182
REMARK   67  A    between atoms: _182  and  _183
REMARK   68  A    between atoms: _193  and  _194
REMARK   69  A    between atoms: _199  and  _201
REMARK   70  A    between atoms: _201  and  _202
REMARK   71  A    between atoms: _201  and  _204
REMARK   72  A    between atoms: _206  and  _208
REMARK   73  A    between atoms: _208  and  _209
REMARK   74  A    between atoms: _208  and  _211
REMARK   75  A    between atoms: _211  and  _212
REMARK   76  A    between atoms: _212  and  _213
REMARK   77  A    between atoms: _217  and  _218
REMARK   78  A    between atoms: _224  and  _225
REMARK   79  A    between atoms: _230  and  _232
REMARK   80  A    between atoms: _232  and  _233
REMARK   81  A    between atoms: _232  and  _235
REMARK   82  A    between atoms: _235  and  _236
REMARK   83  A    between atoms: _236  and  _237
REMARK   84  A    between atoms: _240  and  _242
REMARK   85  A    between atoms: _242  and  _243
REMARK   86  A    between atoms: _242  and  _245
REMARK   87  A    between atoms: _245  and  _246
REMARK   88  A    between atoms: _248  and  _250
REMARK   89  A    between atoms: _250  and  _251
REMARK   90  A    between atoms: _250  and  _253
REMARK   91  A    between atoms: _253  and  _254
REMARK   92  A    between atoms: _257  and  _259
REMARK   93  A    between atoms: _259  and  _260
REMARK   94  A    between atoms: _259  and  _262
REMARK   95  A    between atoms: _264  and  _266
REMARK   96  A    between atoms: _266  and  _267
REMARK   97  A    between atoms: _266  and  _269
REMARK   98  A    between atoms: _269  and  _270
REMARK   99  A    between atoms: _273  and  _275
REMARK  100  A    between atoms: _275  and  _276
REMARK  101  A    between atoms: _275  and  _278
REMARK  102  A    between atoms: _278  and  _279
REMARK  103  A    between atoms: _282  and  _284
REMARK  104  A    between atoms: _284  and  _285
REMARK  105  A    between atoms: _284  and  _287
REMARK  106  A    between atoms: _287  and  _288
REMARK                            x       y       z     vdW  Elec       q    Type
REMARK                         _______ _______ _______ _____ _____    ______ ____
ROOT
ATOM      1  O   HOH     1      87.340  99.476 -42.907  0.00  0.00    +0.000 OA
ENDROOT
TORSDOF 0
REMARK  Name = ../refined-set-2016/5a7b/5a7b_pocket.pdb
REMARK  106 active torsions:
REMARK  status: ('A' for Active; 'I' for Inactive)
REMARK    1  A    between atoms: _1  and  _3
REMARK    2  A    between atoms: _3  and  _4
REMARK    3  A    between atoms: _3  and  _6
REMARK    4  A    between atoms: _6  and  _7
REMARK    5  A    between atoms: _12  and  _13
REMARK    6  A    between atoms: _15  and  _17
REMARK    7  A    between atoms: _17  and  _18
REMARK    8  A    between atoms: _17  and  _20
REMARK    9  A    between atoms: _20  and  _21
REMARK   10  A    between atoms: _27  and  _29
REMARK   11  A    between atoms: _29  and  _30
REMARK   12  A    between atoms: _29  and  _32
REMARK   13  A    between atoms: _32  and  _33
REMARK   14  A    between atoms: _33  and  _34
REMARK   15  A    between atoms: _34  and  _35
REMARK   16  A    between atoms: _44  and  _46
REMARK   17  A    between atoms: _46  and  _47
REMARK   18  A    between atoms: _46  and  _49
REMARK   19  A    between atoms: _49  and  _50
REMARK   20  A    between atoms: _50  and  _51
REMARK   21  A    between atoms: _56  and  _58
REMARK   22  A    between atoms: _58  and  _59
REMARK   23  A    between atoms: _58  and  _61
REMARK   24  A    between atoms: _61  and  _62
REMARK   25  A    between atoms: _65  and  _67
REMARK   26  A    between atoms: _67  and  _68
REMARK   27  A    between atoms: _67  and  _70
REMARK   28  A    between atoms: _70  and  _71
REMARK   29  A    between atoms: _81  and  _83
REMARK   30  A    between atoms: _83  and  _84
REMARK   31  A    between atoms: _83  and  _86
REMARK   32  A    between atoms: _89  and  _91
REMARK   33  A    between atoms: _91  and  _92
REMARK   34  A    between atoms: _91  and  _94
REMARK   35  A    between atoms: _94  and  _95
REMARK   36  A    between atoms: _98  and  _100
REMARK   37  A    between atoms: _100  and  _101
REMARK   38  A    between atoms: _100  and  _103
REMARK   39  A    between atoms: _103  and  _104
REMARK   40  A    between atoms: _106  and  _108
REMARK   41  A    between atoms: _108  and  _109
REMARK   42  A    between atoms: _108  and  _111
REMARK   43  A    between atoms: _111  and  _112
REMARK   44  A    between atoms: _116  and  _117
REMARK   45  A    between atoms: _123  and  _124
REMARK   46  A    between atoms: _130  and  _131
REMARK   47  A    between atoms: _136  and  _138
REMARK   48  A    between atoms: _138  and  _139
REMARK   49  A    between atoms: _141  and  _143
REMARK   50  A    between atoms: _143  and  _144
REMARK   51  A    between atoms: _143  and  _146
REMARK   52  A    between atoms: _146  and  _147
REMARK   53  A    between atoms: _150  and  _152
REMARK   54  A    between atoms: _152  and  _153
REMARK   55  A    between atoms: _152  and  _155
REMARK   56  A    between atoms: _155  and  _156
REMARK   57  A    between atoms: _156  and  _157
REMARK   58  A    between atoms: _157  and  _158
REMARK   59  A    between atoms: _167  and  _169
REMARK   60  A    between atoms: _169  and  _170
REMARK   61  A    between atoms: _169  and  _172
REMARK   62  A    between atoms: _175  and  _177
REMARK   63  A    between atoms: _177  and  _178
REMARK   64  A    between atoms: _177  and  _180
REMARK   65  A    between atoms: _180  and  _181
REMARK   66  A    between atoms: _181  and  _182
REMARK   67  A    between atoms: _182  and  _183
REMARK   68  A    between atoms: _193  and  _194
REMARK   69  A    between atoms: _199  and  _201
REMARK   70  A    between atoms: _201  and  _202
REMARK   71  A    between atoms: _201  and  _204
REMARK   72  A    between atoms: _206  and  _208
REMARK   73  A    between atoms: _208  and  _209
REMARK   74  A    between atoms: _208  and  _211
REMARK   75  A    between atoms: _211  and  _212
REMARK   76  A    between atoms: _212  and  _213
REMARK   77  A    between atoms: _217  and  _218
REMARK   78  A    between atoms: _224  and  _225
REMARK   79  A    between atoms: _230  and  _232
REMARK   80  A    between atoms: _232  and  _233
REMARK   81  A    between atoms: _232  and  _235
REMARK   82  A    between atoms: _235  and  _236
REMARK   83  A    between atoms: _236  and  _237
REMARK   84  A    between atoms: _240  and  _242
REMARK   85  A    between atoms: _242  and  _243
REMARK   86  A    between atoms: _242  and  _245
REMARK   87  A    between atoms: _245  and  _246
REMARK   88  A    between atoms: _248  and  _250
REMARK   89  A    between atoms: _250  and  _251
REMARK   90  A    between atoms: _250  and  _253
REMARK   91  A    between atoms: _253  and  _254
REMARK   92  A    between atoms: _257  and  _259
REMARK   93  A    between atoms: _259  and  _260
REMARK   94  A    between atoms: _259  and  _262
REMARK   95  A    between atoms: _264  and  _266
REMARK   96  A    between atoms: _266  and  _267
REMARK   97  A    between atoms: _266  and  _269
REMARK   98  A    between atoms: _269  and  _270
REMARK   99  A    between atoms: _273  and  _275
REMARK  100  A    between atoms: _275  and  _276
REMARK  101  A    between atoms: _275  and  _278
REMARK  102  A    between atoms: _278  and  _279
REMARK  103  A    between atoms: _282  and  _284
REMARK  104  A    between atoms: _284  and  _285
REMARK  105  A    between atoms: _284  and  _287
REMARK  106  A    between atoms: _287  and  _288
REMARK                            x       y       z     vdW  Elec       q    Type
REMARK                         _______ _______ _______ _____ _____    ______ ____
ROOT
ATOM      1  O   HOH     1      91.002 100.834 -40.623  0.00  0.00    +0.000 OA
ENDROOT
TORSDOF 0
REMARK  Name = ../refined-set-2016/5a7b/5a7b_pocket.pdb
REMARK  106 active torsions:
REMARK  status: ('A' for Active; 'I' for Inactive)
REMARK    1  A    between atoms: _1  and  _3
REMARK    2  A    between atoms: _3  and  _4
REMARK    3  A    between atoms: _3  and  _6
REMARK    4  A    between atoms: _6  and  _7
REMARK    5  A    between atoms: _12  and  _13
REMARK    6  A    between atoms: _15  and  _17
REMARK    7  A    between atoms: _17  and  _18
REMARK    8  A    between atoms: _17  and  _20
REMARK    9  A    between atoms: _20  and  _21
REMARK   10  A    between atoms: _27  and  _29
REMARK   11  A    between atoms: _29  and  _30
REMARK   12  A    between atoms: _29  and  _32
REMARK   13  A    between atoms: _32  and  _33
REMARK   14  A    between atoms: _33  and  _34
REMARK   15  A    between atoms: _34  and  _35
REMARK   16  A    between atoms: _44  and  _46
REMARK   17  A    between atoms: _46  and  _47
REMARK   18  A    between atoms: _46  and  _49
REMARK   19  A    between atoms: _49  and  _50
REMARK   20  A    between atoms: _50  and  _51
REMARK   21  A    between atoms: _56  and  _58
REMARK   22  A    between atoms: _58  and  _59
REMARK   23  A    between atoms: _58  and  _61
REMARK   24  A    between atoms: _61  and  _62
REMARK   25  A    between atoms: _65  and  _67
REMARK   26  A    between atoms: _67  and  _68
REMARK   27  A    between atoms: _67  and  _70
REMARK   28  A    between atoms: _70  and  _71
REMARK   29  A    between atoms: _81  and  _83
REMARK   30  A    between atoms: _83  and  _84
REMARK   31  A    between atoms: _83  and  _86
REMARK   32  A    between atoms: _89  and  _91
REMARK   33  A    between atoms: _91  and  _92
REMARK   34  A    between atoms: _91  and  _94
REMARK   35  A    between atoms: _94  and  _95
REMARK   36  A    between atoms: _98  and  _100
REMARK   37  A    between atoms: _100  and  _101
REMARK   38  A    between atoms: _100  and  _103
REMARK   39  A    between atoms: _103  and  _104
REMARK   40  A    between atoms: _106  and  _108
REMARK   41  A    between atoms: _108  and  _109
REMARK   42  A    between atoms: _108  and  _111
REMARK   43  A    between atoms: _111  and  _112
REMARK   44  A    between atoms: _116  and  _117
REMARK   45  A    between atoms: _123  and  _124
REMARK   46  A    between atoms: _130  and  _131
REMARK   47  A    between atoms: _136  and  _138
REMARK   48  A    between atoms: _138  and  _139
REMARK   49  A    between atoms: _141  and  _143
REMARK   50  A    between atoms: _143  and  _144
REMARK   51  A    between atoms: _143  and  _146
REMARK   52  A    between atoms: _146  and  _147
REMARK   53  A    between atoms: _150  and  _152
REMARK   54  A    between atoms: _152  and  _153
REMARK   55  A    between atoms: _152  and  _155
REMARK   56  A    between atoms: _155  and  _156
REMARK   57  A    between atoms: _156  and  _157
REMARK   58  A    between atoms: _157  and  _158
REMARK   59  A    between atoms: _167  and  _169
REMARK   60  A    between atoms: _169  and  _170
REMARK   61  A    between atoms: _169  and  _172
REMARK   62  A    between atoms: _175  and  _177
REMARK   63  A    between atoms: _177  and  _178
REMARK   64  A    between atoms: _177  and  _180
REMARK   65  A    between atoms: _180  and  _181
REMARK   66  A    between atoms: _181  and  _182
REMARK   67  A    between atoms: _182  and  _183
REMARK   68  A    between atoms: _193  and  _194
REMARK   69  A    between atoms: _199  and  _201
REMARK   70  A    between atoms: _201  and  _202
REMARK   71  A    between atoms: _201  and  _204
REMARK   72  A    between atoms: _206  and  _208
REMARK   73  A    between atoms: _208  and  _209
REMARK   74  A    between atoms: _208  and  _211
REMARK   75  A    between atoms: _211  and  _212
REMARK   76  A    between atoms: _212  and  _213
REMARK   77  A    between atoms: _217  and  _218
REMARK   78  A    between atoms: _224  and  _225
REMARK   79  A    between atoms: _230  and  _232
REMARK   80  A    between atoms: _232  and  _233
REMARK   81  A    between atoms: _232  and  _235
REMARK   82  A    between atoms: _235  and  _236
REMARK   83  A    between atoms: _236  and  _237
REMARK   84  A    between atoms: _240  and  _242
REMARK   85  A    between atoms: _242  and  _243
REMARK   86  A    between atoms: _242  and  _245
REMARK   87  A    between atoms: _245  and  _246
REMARK   88  A    between atoms: _248  and  _250
REMARK   89  A    between atoms: _250  and  _251
REMARK   90  A    between atoms: _250  and  _253
REMARK   91  A    between atoms: _253  and  _254
REMARK   92  A    between atoms: _257  and  _259
REMARK   93  A    between atoms: _259  and  _260
REMARK   94  A    between atoms: _259  and  _262
REMARK   95  A    between atoms: _264  and  _266
REMARK   96  A    between atoms: _266  and  _267
REMARK   97  A    between atoms: _266  and  _269
REMARK   98  A    between atoms: _269  and  _270
REMARK   99  A    between atoms: _273  and  _275
REMARK  100  A    between atoms: _275  and  _276
REMARK  101  A    between atoms: _275  and  _278
REMARK  102  A    between atoms: _278  and  _279
REMARK  103  A    between atoms: _282  and  _284
REMARK  104  A    between atoms: _284  and  _285
REMARK  105  A    between atoms: _284  and  _287
REMARK  106  A    between atoms: _287  and  _288
REMARK                            x       y       z     vdW  Elec       q    Type
REMARK                         _______ _______ _______ _____ _____    ______ ____
ROOT
ATOM      1  O   HOH     1      84.479 103.044 -40.232  0.00  0.00    +0.000 OA
ENDROOT
TORSDOF 0
REMARK  Name = ../refined-set-2016/5a7b/5a7b_pocket.pdb
REMARK  106 active torsions:
REMARK  status: ('A' for Active; 'I' for Inactive)
REMARK    1  A    between atoms: _1  and  _3
REMARK    2  A    between atoms: _3  and  _4
REMARK    3  A    between atoms: _3  and  _6
REMARK    4  A    between atoms: _6  and  _7
REMARK    5  A    between atoms: _12  and  _13
REMARK    6  A    between atoms: _15  and  _17
REMARK    7  A    between atoms: _17  and  _18
REMARK    8  A    between atoms: _17  and  _20
REMARK    9  A    between atoms: _20  and  _21
REMARK   10  A    between atoms: _27  and  _29
REMARK   11  A    between atoms: _29  and  _30
REMARK   12  A    between atoms: _29  and  _32
REMARK   13  A    between atoms: _32  and  _33
REMARK   14  A    between atoms: _33  and  _34
REMARK   15  A    between atoms: _34  and  _35
REMARK   16  A    between atoms: _44  and  _46
REMARK   17  A    between atoms: _46  and  _47
REMARK   18  A    between atoms: _46  and  _49
REMARK   19  A    between atoms: _49  and  _50
REMARK   20  A    between atoms: _50  and  _51
REMARK   21  A    between atoms: _56  and  _58
REMARK   22  A    between atoms: _58  and  _59
REMARK   23  A    between atoms: _58  and  _61
REMARK   24  A    between atoms: _61  and  _62
REMARK   25  A    between atoms: _65  and  _67
REMARK   26  A    between atoms: _67  and  _68
REMARK   27  A    between atoms: _67  and  _70
REMARK   28  A    between atoms: _70  and  _71
REMARK   29  A    between atoms: _81  and  _83
REMARK   30  A    between atoms: _83  and  _84
REMARK   31  A    between atoms: _83  and  _86
REMARK   32  A    between atoms: _89  and  _91
REMARK   33  A    between atoms: _91  and  _92
REMARK   34  A    between atoms: _91  and  _94
REMARK   35  A    between atoms: _94  and  _95
REMARK   36  A    between atoms: _98  and  _100
REMARK   37  A    between atoms: _100  and  _101
REMARK   38  A    between atoms: _100  and  _103
REMARK   39  A    between atoms: _103  and  _104
REMARK   40  A    between atoms: _106  and  _108
REMARK   41  A    between atoms: _108  and  _109
REMARK   42  A    between atoms: _108  and  _111
REMARK   43  A    between atoms: _111  and  _112
REMARK   44  A    between atoms: _116  and  _117
REMARK   45  A    between atoms: _123  and  _124
REMARK   46  A    between atoms: _130  and  _131
REMARK   47  A    between atoms: _136  and  _138
REMARK   48  A    between atoms: _138  and  _139
REMARK   49  A    between atoms: _141  and  _143
REMARK   50  A    between atoms: _143  and  _144
REMARK   51  A    between atoms: _143  and  _146
REMARK   52  A    between atoms: _146  and  _147
REMARK   53  A    between atoms: _150  and  _152
REMARK   54  A    between atoms: _152  and  _153
REMARK   55  A    between atoms: _152  and  _155
REMARK   56  A    between atoms: _155  and  _156
REMARK   57  A    between atoms: _156  and  _157
REMARK   58  A    between atoms: _157  and  _158
REMARK   59  A    between atoms: _167  and  _169
REMARK   60  A    between atoms: _169  and  _170
REMARK   61  A    between atoms: _169  and  _172
REMARK   62  A    between atoms: _175  and  _177
REMARK   63  A    between atoms: _177  and  _178
REMARK   64  A    between atoms: _177  and  _180
REMARK   65  A    between atoms: _180  and  _181
REMARK   66  A    between atoms: _181  and  _182
REMARK   67  A    between atoms: _182  and  _183
REMARK   68  A    between atoms: _193  and  _194
REMARK   69  A    between atoms: _199  and  _201
REMARK   70  A    between atoms: _201  and  _202
REMARK   71  A    between atoms: _201  and  _204
REMARK   72  A    between atoms: _206  and  _208
REMARK   73  A    between atoms: _208  and  _209
REMARK   74  A    between atoms: _208  and  _211
REMARK   75  A    between atoms: _211  and  _212
REMARK   76  A    between atoms: _212  and  _213
REMARK   77  A    between atoms: _217  and  _218
REMARK   78  A    between atoms: _224  and  _225
REMARK   79  A    between atoms: _230  and  _232
REMARK   80  A    between atoms: _232  and  _233
REMARK   81  A    between atoms: _232  and  _235
REMARK   82  A    between atoms: _235  and  _236
REMARK   83  A    between atoms: _236  and  _237
REMARK   84  A    between atoms: _240  and  _242
REMARK   85  A    between atoms: _242  and  _243
REMARK   86  A    between atoms: _242  and  _245
REMARK   87  A    between atoms: _245  and  _246
REMARK   88  A    between atoms: _248  and  _250
REMARK   89  A    between atoms: _250  and  _251
REMARK   90  A    between atoms: _250  and  _253
REMARK   91  A    between atoms: _253  and  _254
REMARK   92  A    between atoms: _257  and  _259
REMARK   93  A    between atoms: _259  and  _260
REMARK   94  A    between atoms: _259  and  _262
REMARK   95  A    between atoms: _264  and  _266
REMARK   96  A    between atoms: _266  and  _267
REMARK   97  A    between atoms: _266  and  _269
REMARK   98  A    between atoms: _269  and  _270
REMARK   99  A    between atoms: _273  and  _275
REMARK  100  A    between atoms: _275  and  _276
REMARK  101  A    between atoms: _275  and  _278
REMARK  102  A    between atoms: _278  and  _279
REMARK  103  A    between atoms: _282  and  _284
REMARK  104  A    between atoms: _284  and  _285
REMARK  105  A    between atoms: _284  and  _287
REMARK  106  A    between atoms: _287  and  _288
REMARK                            x       y       z     vdW  Elec       q    Type
REMARK                         _______ _______ _______ _____ _____    ______ ____
ROOT
ATOM      1  O   HOH     1      88.534 101.996 -41.620  0.00  0.00    +0.000 OA
ENDROOT
TORSDOF 0
REMARK  Name = ../refined-set-2016/5a7b/5a7b_pocket.pdb
REMARK  106 active torsions:
REMARK  status: ('A' for Active; 'I' for Inactive)
REMARK    1  A    between atoms: _1  and  _3
REMARK    2  A    between atoms: _3  and  _4
REMARK    3  A    between atoms: _3  and  _6
REMARK    4  A    between atoms: _6  and  _7
REMARK    5  A    between atoms: _12  and  _13
REMARK    6  A    between atoms: _15  and  _17
REMARK    7  A    between atoms: _17  and  _18
REMARK    8  A    between atoms: _17  and  _20
REMARK    9  A    between atoms: _20  and  _21
REMARK   10  A    between atoms: _27  and  _29
REMARK   11  A    between atoms: _29  and  _30
REMARK   12  A    between atoms: _29  and  _32
REMARK   13  A    between atoms: _32  and  _33
REMARK   14  A    between atoms: _33  and  _34
REMARK   15  A    between atoms: _34  and  _35
REMARK   16  A    between atoms: _44  and  _46
REMARK   17  A    between atoms: _46  and  _47
REMARK   18  A    between atoms: _46  and  _49
REMARK   19  A    between atoms: _49  and  _50
REMARK   20  A    between atoms: _50  and  _51
REMARK   21  A    between atoms: _56  and  _58
REMARK   22  A    between atoms: _58  and  _59
REMARK   23  A    between atoms: _58  and  _61
REMARK   24  A    between atoms: _61  and  _62
REMARK   25  A    between atoms: _65  and  _67
REMARK   26  A    between atoms: _67  and  _68
REMARK   27  A    between atoms: _67  and  _70
REMARK   28  A    between atoms: _70  and  _71
REMARK   29  A    between atoms: _81  and  _83
REMARK   30  A    between atoms: _83  and  _84
REMARK   31  A    between atoms: _83  and  _86
REMARK   32  A    between atoms: _89  and  _91
REMARK   33  A    between atoms: _91  and  _92
REMARK   34  A    between atoms: _91  and  _94
REMARK   35  A    between atoms: _94  and  _95
REMARK   36  A    between atoms: _98  and  _100
REMARK   37  A    between atoms: _100  and  _101
REMARK   38  A    between atoms: _100  and  _103
REMARK   39  A    between atoms: _103  and  _104
REMARK   40  A    between atoms: _106  and  _108
REMARK   41  A    between atoms: _108  and  _109
REMARK   42  A    between atoms: _108  and  _111
REMARK   43  A    between atoms: _111  and  _112
REMARK   44  A    between atoms: _116  and  _117
REMARK   45  A    between atoms: _123  and  _124
REMARK   46  A    between atoms: _130  and  _131
REMARK   47  A    between atoms: _136  and  _138
REMARK   48  A    between atoms: _138  and  _139
REMARK   49  A    between atoms: _141  and  _143
REMARK   50  A    between atoms: _143  and  _144
REMARK   51  A    between atoms: _143  and  _146
REMARK   52  A    between atoms: _146  and  _147
REMARK   53  A    between atoms: _150  and  _152
REMARK   54  A    between atoms: _152  and  _153
REMARK   55  A    between atoms: _152  and  _155
REMARK   56  A    between atoms: _155  and  _156
REMARK   57  A    between atoms: _156  and  _157
REMARK   58  A    between atoms: _157  and  _158
REMARK   59  A    between atoms: _167  and  _169
REMARK   60  A    between atoms: _169  and  _170
REMARK   61  A    between atoms: _169  and  _172
REMARK   62  A    between atoms: _175  and  _177
REMARK   63  A    between atoms: _177  and  _178
REMARK   64  A    between atoms: _177  and  _180
REMARK   65  A    between atoms: _180  and  _181
REMARK   66  A    between atoms: _181  and  _182
REMARK   67  A    between atoms: _182  and  _183
REMARK   68  A    between atoms: _193  and  _194
REMARK   69  A    between atoms: _199  and  _201
REMARK   70  A    between atoms: _201  and  _202
REMARK   71  A    between atoms: _201  and  _204
REMARK   72  A    between atoms: _206  and  _208
REMARK   73  A    between atoms: _208  and  _209
REMARK   74  A    between atoms: _208  and  _211
REMARK   75  A    between atoms: _211  and  _212
REMARK   76  A    between atoms: _212  and  _213
REMARK   77  A    between atoms: _217  and  _218
REMARK   78  A    between atoms: _224  and  _225
REMARK   79  A    between atoms: _230  and  _232
REMARK   80  A    between atoms: _232  and  _233
REMARK   81  A    between atoms: _232  and  _235
REMARK   82  A    between atoms: _235  and  _236
REMARK   83  A    between atoms: _236  and  _237
REMARK   84  A    between atoms: _240  and  _242
REMARK   85  A    between atoms: _242  and  _243
REMARK   86  A    between atoms: _242  and  _245
REMARK   87  A    between atoms: _245  and  _246
REMARK   88  A    between atoms: _248  and  _250
REMARK   89  A    between atoms: _250  and  _251
REMARK   90  A    between atoms: _250  and  _253
REMARK   91  A    between atoms: _253  and  _254
REMARK   92  A    between atoms: _257  and  _259
REMARK   93  A    between atoms: _259  and  _260
REMARK   94  A    between atoms: _259  and  _262
REMARK   95  A    between atoms: _264  and  _266
REMARK   96  A    between atoms: _266  and  _267
REMARK   97  A    between atoms: _266  and  _269
REMARK   98  A    between atoms: _269  and  _270
REMARK   99  A    between atoms: _273  and  _275
REMARK  100  A    between atoms: _275  and  _276
REMARK  101  A    between atoms: _275  and  _278
REMARK  102  A    between atoms: _278  and  _279
REMARK  103  A    between atoms: _282  and  _284
REMARK  104  A    between atoms: _284  and  _285
REMARK  105  A    between atoms: _284  and  _287
REMARK  106  A    between atoms: _287  and  _288
REMARK                            x       y       z     vdW  Elec       q    Type
REMARK                         _______ _______ _______ _____ _____    ______ ____
ROOT
ATOM      1  O   HOH     1      86.457  93.544 -35.621  0.00  0.00    +0.000 OA
ENDROOT
TORSDOF 0
REMARK  Name = ../refined-set-2016/5a7b/5a7b_pocket.pdb
REMARK  106 active torsions:
REMARK  status: ('A' for Active; 'I' for Inactive)
REMARK    1  A    between atoms: _1  and  _3
REMARK    2  A    between atoms: _3  and  _4
REMARK    3  A    between atoms: _3  and  _6
REMARK    4  A    between atoms: _6  and  _7
REMARK    5  A    between atoms: _12  and  _13
REMARK    6  A    between atoms: _15  and  _17
REMARK    7  A    between atoms: _17  and  _18
REMARK    8  A    between atoms: _17  and  _20
REMARK    9  A    between atoms: _20  and  _21
REMARK   10  A    between atoms: _27  and  _29
REMARK   11  A    between atoms: _29  and  _30
REMARK   12  A    between atoms: _29  and  _32
REMARK   13  A    between atoms: _32  and  _33
REMARK   14  A    between atoms: _33  and  _34
REMARK   15  A    between atoms: _34  and  _35
REMARK   16  A    between atoms: _44  and  _46
REMARK   17  A    between atoms: _46  and  _47
REMARK   18  A    between atoms: _46  and  _49
REMARK   19  A    between atoms: _49  and  _50
REMARK   20  A    between atoms: _50  and  _51
REMARK   21  A    between atoms: _56  and  _58
REMARK   22  A    between atoms: _58  and  _59
REMARK   23  A    between atoms: _58  and  _61
REMARK   24  A    between atoms: _61  and  _62
REMARK   25  A    between atoms: _65  and  _67
REMARK   26  A    between atoms: _67  and  _68
REMARK   27  A    between atoms: _67  and  _70
REMARK   28  A    between atoms: _70  and  _71
REMARK   29  A    between atoms: _81  and  _83
REMARK   30  A    between atoms: _83  and  _84
REMARK   31  A    between atoms: _83  and  _86
REMARK   32  A    between atoms: _89  and  _91
REMARK   33  A    between atoms: _91  and  _92
REMARK   34  A    between atoms: _91  and  _94
REMARK   35  A    between atoms: _94  and  _95
REMARK   36  A    between atoms: _98  and  _100
REMARK   37  A    between atoms: _100  and  _101
REMARK   38  A    between atoms: _100  and  _103
REMARK   39  A    between atoms: _103  and  _104
REMARK   40  A    between atoms: _106  and  _108
REMARK   41  A    between atoms: _108  and  _109
REMARK   42  A    between atoms: _108  and  _111
REMARK   43  A    between atoms: _111  and  _112
REMARK   44  A    between atoms: _116  and  _117
REMARK   45  A    between atoms: _123  and  _124
REMARK   46  A    between atoms: _130  and  _131
REMARK   47  A    between atoms: _136  and  _138
REMARK   48  A    between atoms: _138  and  _139
REMARK   49  A    between atoms: _141  and  _143
REMARK   50  A    between atoms: _143  and  _144
REMARK   51  A    between atoms: _143  and  _146
REMARK   52  A    between atoms: _146  and  _147
REMARK   53  A    between atoms: _150  and  _152
REMARK   54  A    between atoms: _152  and  _153
REMARK   55  A    between atoms: _152  and  _155
REMARK   56  A    between atoms: _155  and  _156
REMARK   57  A    between atoms: _156  and  _157
REMARK   58  A    between atoms: _157  and  _158
REMARK   59  A    between atoms: _167  and  _169
REMARK   60  A    between atoms: _169  and  _170
REMARK   61  A    between atoms: _169  and  _172
REMARK   62  A    between atoms: _175  and  _177
REMARK   63  A    between atoms: _177  and  _178
REMARK   64  A    between atoms: _177  and  _180
REMARK   65  A    between atoms: _180  and  _181
REMARK   66  A    between atoms: _181  and  _182
REMARK   67  A    between atoms: _182  and  _183
REMARK   68  A    between atoms: _193  and  _194
REMARK   69  A    between atoms: _199  and  _201
REMARK   70  A    between atoms: _201  and  _202
REMARK   71  A    between atoms: _201  and  _204
REMARK   72  A    between atoms: _206  and  _208
REMARK   73  A    between atoms: _208  and  _209
REMARK   74  A    between atoms: _208  and  _211
REMARK   75  A    between atoms: _211  and  _212
REMARK   76  A    between atoms: _212  and  _213
REMARK   77  A    between atoms: _217  and  _218
REMARK   78  A    between atoms: _224  and  _225
REMARK   79  A    between atoms: _230  and  _232
REMARK   80  A    between atoms: _232  and  _233
REMARK   81  A    between atoms: _232  and  _235
REMARK   82  A    between atoms: _235  and  _236
REMARK   83  A    between atoms: _236  and  _237
REMARK   84  A    between atoms: _240  and  _242
REMARK   85  A    between atoms: _242  and  _243
REMARK   86  A    between atoms: _242  and  _245
REMARK   87  A    between atoms: _245  and  _246
REMARK   88  A    between atoms: _248  and  _250
REMARK   89  A    between atoms: _250  and  _251
REMARK   90  A    between atoms: _250  and  _253
REMARK   91  A    between atoms: _253  and  _254
REMARK   92  A    between atoms: _257  and  _259
REMARK   93  A    between atoms: _259  and  _260
REMARK   94  A    between atoms: _259  and  _262
REMARK   95  A    between atoms: _264  and  _266
REMARK   96  A    between atoms: _266  and  _267
REMARK   97  A    between atoms: _266  and  _269
REMARK   98  A    between atoms: _269  and  _270
REMARK   99  A    between atoms: _273  and  _275
REMARK  100  A    between atoms: _275  and  _276
REMARK  101  A    between atoms: _275  and  _278
REMARK  102  A    between atoms: _278  and  _279
REMARK  103  A    between atoms: _282  and  _284
REMARK  104  A    between atoms: _284  and  _285
REMARK  105  A    between atoms: _284  and  _287
REMARK  106  A    between atoms: _287  and  _288
REMARK                            x       y       z     vdW  Elec       q    Type
REMARK                         _______ _______ _______ _____ _____    ______ ____
ROOT
ATOM      1  O   HOH     1      85.868  90.546 -37.657  0.00  0.00    +0.000 OA
ENDROOT
TORSDOF 0
