REMARK  Name = ../refined-set-2016/1pdz/1pdz_pocket.pdb
REMARK  150 active torsions:
REMARK  status: ('A' for Active; 'I' for Inactive)
REMARK    1  A    between atoms: _1  and  _3
REMARK    2  A    between atoms: _3  and  _4
REMARK    3  A    between atoms: _3  and  _6
REMARK    4  A    between atoms: _6  and  _7
REMARK    5  A    between atoms: _7  and  _8
REMARK    6  A    between atoms: _8  and  _9
REMARK    7  A    between atoms: _19  and  _20
REMARK    8  A    between atoms: _25  and  _27
REMARK    9  A    between atoms: _27  and  _28
REMARK   10  A    between atoms: _27  and  _30
REMARK   11  A    between atoms: _30  and  _31
REMARK   12  A    between atoms: _33  and  _35
REMARK   13  A    between atoms: _35  and  _36
REMARK   14  A    between atoms: _38  and  _40
REMARK   15  A    between atoms: _40  and  _41
REMARK   16  A    between atoms: _44  and  _46
REMARK   17  A    between atoms: _46  and  _47
REMARK   18  A    between atoms: _46  and  _49
REMARK   19  A    between atoms: _49  and  _50
REMARK   20  A    between atoms: _50  and  _51
REMARK   21  A    between atoms: _54  and  _56
REMARK   22  A    between atoms: _56  and  _57
REMARK   23  A    between atoms: _56  and  _59
REMARK   24  A    between atoms: _59  and  _60
REMARK   25  A    between atoms: _60  and  _61
REMARK   26  A    between atoms: _64  and  _66
REMARK   27  A    between atoms: _66  and  _67
REMARK   28  A    between atoms: _66  and  _69
REMARK   29  A    between atoms: _69  and  _70
REMARK   30  A    between atoms: _70  and  _71
REMARK   31  A    between atoms: _71  and  _72
REMARK   32  A    between atoms: _81  and  _83
REMARK   33  A    between atoms: _83  and  _84
REMARK   34  A    between atoms: _83  and  _86
REMARK   35  A    between atoms: _86  and  _87
REMARK   36  A    between atoms: _92  and  _94
REMARK   37  A    between atoms: _94  and  _95
REMARK   38  A    between atoms: _94  and  _97
REMARK   39  A    between atoms: _97  and  _98
REMARK   40  A    between atoms: _100  and  _102
REMARK   41  A    between atoms: _102  and  _103
REMARK   42  A    between atoms: _102  and  _105
REMARK   43  A    between atoms: _105  and  _106
REMARK   44  A    between atoms: _111  and  _113
REMARK   45  A    between atoms: _113  and  _114
REMARK   46  A    between atoms: _113  and  _116
REMARK   47  A    between atoms: _116  and  _117
REMARK   48  A    between atoms: _117  and  _118
REMARK   49  A    between atoms: _123  and  _125
REMARK   50  A    between atoms: _125  and  _126
REMARK   51  A    between atoms: _125  and  _128
REMARK   52  A    between atoms: _128  and  _129
REMARK   53  A    between atoms: _129  and  _130
REMARK   54  A    between atoms: _133  and  _135
REMARK   55  A    between atoms: _135  and  _136
REMARK   56  A    between atoms: _135  and  _138
REMARK   57  A    between atoms: _138  and  _139
REMARK   58  A    between atoms: _142  and  _144
REMARK   59  A    between atoms: _144  and  _145
REMARK   60  A    between atoms: _144  and  _147
REMARK   61  A    between atoms: _147  and  _148
REMARK   62  A    between atoms: _148  and  _149
REMARK   63  A    between atoms: _152  and  _154
REMARK   64  A    between atoms: _154  and  _155
REMARK   65  A    between atoms: _154  and  _157
REMARK   66  A    between atoms: _157  and  _158
REMARK   67  A    between atoms: _158  and  _160
REMARK   68  A    between atoms: _160  and  MN_338
REMARK   69  A    between atoms: _161  and  _163
REMARK   70  A    between atoms: _163  and  _164
REMARK   71  A    between atoms: _163  and  _166
REMARK   72  A    between atoms: _166  and  _167
REMARK   73  A    between atoms: _167  and  _168
REMARK   74  A    between atoms: _171  and  _173
REMARK   75  A    between atoms: _173  and  _174
REMARK   76  A    between atoms: _173  and  _176
REMARK   77  A    between atoms: _176  and  _177
REMARK   78  A    between atoms: _177  and  _178
REMARK   79  A    between atoms: _178  and  _180
REMARK   80  A    between atoms: _180  and  MN_338
REMARK   81  A    between atoms: _181  and  _183
REMARK   82  A    between atoms: _183  and  _184
REMARK   83  A    between atoms: _183  and  _186
REMARK   84  A    between atoms: _186  and  _187
REMARK   85  A    between atoms: _187  and  _189
REMARK   86  A    between atoms: _189  and  MN_338
REMARK   87  A    between atoms: _190  and  _192
REMARK   88  A    between atoms: _192  and  _193
REMARK   89  A    between atoms: _192  and  _195
REMARK   90  A    between atoms: _195  and  _196
REMARK   91  A    between atoms: _199  and  _201
REMARK   92  A    between atoms: _201  and  _202
REMARK   93  A    between atoms: _201  and  _204
REMARK   94  A    between atoms: _204  and  _205
REMARK   95  A    between atoms: _208  and  _210
REMARK   96  A    between atoms: _210  and  _211
REMARK   97  A    between atoms: _210  and  _213
REMARK   98  A    between atoms: _213  and  _214
REMARK   99  A    between atoms: _214  and  _215
REMARK  100  A    between atoms: _215  and  _216
REMARK  101  A    between atoms: _216  and  _217
REMARK  102  A    between atoms: _221  and  _223
REMARK  103  A    between atoms: _223  and  _224
REMARK  104  A    between atoms: _223  and  _226
REMARK  105  A    between atoms: _226  and  _227
REMARK  106  A    between atoms: _232  and  _234
REMARK  107  A    between atoms: _234  and  _235
REMARK  108  A    between atoms: _234  and  _237
REMARK  109  A    between atoms: _237  and  _238
REMARK  110  A    between atoms: _238  and  _239
REMARK  111  A    between atoms: _244  and  _246
REMARK  112  A    between atoms: _246  and  _247
REMARK  113  A    between atoms: _246  and  _249
REMARK  114  A    between atoms: _249  and  _250
REMARK  115  A    between atoms: _252  and  _254
REMARK  116  A    between atoms: _254  and  _255
REMARK  117  A    between atoms: _254  and  _257
REMARK  118  A    between atoms: _257  and  _258
REMARK  119  A    between atoms: _263  and  _265
REMARK  120  A    between atoms: _265  and  _266
REMARK  121  A    between atoms: _265  and  _268
REMARK  122  A    between atoms: _268  and  _269
REMARK  123  A    between atoms: _269  and  _270
REMARK  124  A    between atoms: _270  and  _271
REMARK  125  A    between atoms: _280  and  _282
REMARK  126  A    between atoms: _282  and  _283
REMARK  127  A    between atoms: _282  and  _285
REMARK  128  A    between atoms: _285  and  _286
REMARK  129  A    between atoms: _288  and  _290
REMARK  130  A    between atoms: _290  and  _291
REMARK  131  A    between atoms: _293  and  _295
REMARK  132  A    between atoms: _295  and  _296
REMARK  133  A    between atoms: _295  and  _298
REMARK  134  A    between atoms: _298  and  _299
REMARK  135  A    between atoms: _299  and  _300
REMARK  136  A    between atoms: _303  and  _305
REMARK  137  A    between atoms: _305  and  _306
REMARK  138  A    between atoms: _305  and  _308
REMARK  139  A    between atoms: _308  and  _309
REMARK  140  A    between atoms: _309  and  _310
REMARK  141  A    between atoms: _310  and  _311
REMARK  142  A    between atoms: _311  and  _312
REMARK  143  A    between atoms: _316  and  _318
REMARK  144  A    between atoms: _318  and  _319
REMARK  145  A    between atoms: _321  and  _323
REMARK  146  A    between atoms: _323  and  _324
REMARK  147  A    between atoms: _323  and  _326
REMARK  148  A    between atoms: _326  and  _327
REMARK  149  A    between atoms: _327  and  _328
REMARK  150  A    between atoms: _328  and  _329
REMARK                            x       y       z     vdW  Elec       q    Type
REMARK                         _______ _______ _______ _____ _____    ______ ____
ROOT
ATOM      1  NE  ARG A   1      38.264  66.966  10.693  0.00  0.00    -0.265 N 
ATOM      2  CZ  ARG A   1      39.109  67.630  11.480  0.00  0.00    +0.342 C 
ATOM      3  NH2 ARG A   1      39.088  67.437  12.795  0.00  0.00    -0.292 N 
ATOM      4 HH21 ARG A   1      39.749  67.957  13.407  0.00  0.00    +0.255 HD
ATOM      5 HH22 ARG A   1      38.411  66.766  13.211  0.00  0.00    +0.255 HD
ATOM      6  NH1 ARG A   1      39.989  68.479  10.958  0.00  0.00    -0.292 N 
ATOM      7 HH11 ARG A   1      40.646  68.994  11.578  0.00  0.00    +0.255 HD
ATOM      8 HH12 ARG A   1      40.021  68.628   9.929  0.00  0.00    +0.255 HD
ATOM      9  HE  ARG A   1      37.603  66.301  11.142  0.00  0.00    +0.259 HD
ENDROOT
BRANCH   1  10
ATOM     10  CD  ARG A   1      38.205  67.111   9.242  0.00  0.00    +0.174 C 
BRANCH  10  11
ATOM     11  CG  ARG A   1      38.230  65.785   8.528  0.00  0.00    +0.045 C 
BRANCH  11  12
ATOM     12  CB  ARG A   1      39.449  64.975   8.920  0.00  0.00    +0.029 C 
BRANCH  12  13
ATOM     13  CA  ARG A   1      39.950  64.088   7.777  0.00  0.00    +0.133 C 
BRANCH  13  14
ATOM     14  N   ARG A   1      38.881  63.193   7.347  0.00  0.00    -0.239 NA
ATOM     15  H   ARG A   1      38.364  62.652   8.069  0.00  0.00    +0.142 HD
ENDBRANCH  13  14
BRANCH  13  16
ATOM     16  C   ARG A   1      41.238  63.372   8.178  0.00  0.00    +0.224 C 
ATOM     17  O   ARG A   1      42.223  64.007   8.553  0.00  0.00    -0.287 OA
ENDBRANCH  13  16
ENDBRANCH  12  13
ENDBRANCH  11  12
ENDBRANCH  10  11
ENDBRANCH   1  10
TORSDOF 6
REMARK  Name = ../refined-set-2016/1pdz/1pdz_pocket.pdb
REMARK  150 active torsions:
REMARK  status: ('A' for Active; 'I' for Inactive)
REMARK    1  A    between atoms: _1  and  _3
REMARK    2  A    between atoms: _3  and  _4
REMARK    3  A    between atoms: _3  and  _6
REMARK    4  A    between atoms: _6  and  _7
REMARK    5  A    between atoms: _7  and  _8
REMARK    6  A    between atoms: _8  and  _9
REMARK    7  A    between atoms: _19  and  _20
REMARK    8  A    between atoms: _25  and  _27
REMARK    9  A    between atoms: _27  and  _28
REMARK   10  A    between atoms: _27  and  _30
REMARK   11  A    between atoms: _30  and  _31
REMARK   12  A    between atoms: _33  and  _35
REMARK   13  A    between atoms: _35  and  _36
REMARK   14  A    between atoms: _38  and  _40
REMARK   15  A    between atoms: _40  and  _41
REMARK   16  A    between atoms: _44  and  _46
REMARK   17  A    between atoms: _46  and  _47
REMARK   18  A    between atoms: _46  and  _49
REMARK   19  A    between atoms: _49  and  _50
REMARK   20  A    between atoms: _50  and  _51
REMARK   21  A    between atoms: _54  and  _56
REMARK   22  A    between atoms: _56  and  _57
REMARK   23  A    between atoms: _56  and  _59
REMARK   24  A    between atoms: _59  and  _60
REMARK   25  A    between atoms: _60  and  _61
REMARK   26  A    between atoms: _64  and  _66
REMARK   27  A    between atoms: _66  and  _67
REMARK   28  A    between atoms: _66  and  _69
REMARK   29  A    between atoms: _69  and  _70
REMARK   30  A    between atoms: _70  and  _71
REMARK   31  A    between atoms: _71  and  _72
REMARK   32  A    between atoms: _81  and  _83
REMARK   33  A    between atoms: _83  and  _84
REMARK   34  A    between atoms: _83  and  _86
REMARK   35  A    between atoms: _86  and  _87
REMARK   36  A    between atoms: _92  and  _94
REMARK   37  A    between atoms: _94  and  _95
REMARK   38  A    between atoms: _94  and  _97
REMARK   39  A    between atoms: _97  and  _98
REMARK   40  A    between atoms: _100  and  _102
REMARK   41  A    between atoms: _102  and  _103
REMARK   42  A    between atoms: _102  and  _105
REMARK   43  A    between atoms: _105  and  _106
REMARK   44  A    between atoms: _111  and  _113
REMARK   45  A    between atoms: _113  and  _114
REMARK   46  A    between atoms: _113  and  _116
REMARK   47  A    between atoms: _116  and  _117
REMARK   48  A    between atoms: _117  and  _118
REMARK   49  A    between atoms: _123  and  _125
REMARK   50  A    between atoms: _125  and  _126
REMARK   51  A    between atoms: _125  and  _128
REMARK   52  A    between atoms: _128  and  _129
REMARK   53  A    between atoms: _129  and  _130
REMARK   54  A    between atoms: _133  and  _135
REMARK   55  A    between atoms: _135  and  _136
REMARK   56  A    between atoms: _135  and  _138
REMARK   57  A    between atoms: _138  and  _139
REMARK   58  A    between atoms: _142  and  _144
REMARK   59  A    between atoms: _144  and  _145
REMARK   60  A    between atoms: _144  and  _147
REMARK   61  A    between atoms: _147  and  _148
REMARK   62  A    between atoms: _148  and  _149
REMARK   63  A    between atoms: _152  and  _154
REMARK   64  A    between atoms: _154  and  _155
REMARK   65  A    between atoms: _154  and  _157
REMARK   66  A    between atoms: _157  and  _158
REMARK   67  A    between atoms: _158  and  _160
REMARK   68  A    between atoms: _160  and  MN_338
REMARK   69  A    between atoms: _161  and  _163
REMARK   70  A    between atoms: _163  and  _164
REMARK   71  A    between atoms: _163  and  _166
REMARK   72  A    between atoms: _166  and  _167
REMARK   73  A    between atoms: _167  and  _168
REMARK   74  A    between atoms: _171  and  _173
REMARK   75  A    between atoms: _173  and  _174
REMARK   76  A    between atoms: _173  and  _176
REMARK   77  A    between atoms: _176  and  _177
REMARK   78  A    between atoms: _177  and  _178
REMARK   79  A    between atoms: _178  and  _180
REMARK   80  A    between atoms: _180  and  MN_338
REMARK   81  A    between atoms: _181  and  _183
REMARK   82  A    between atoms: _183  and  _184
REMARK   83  A    between atoms: _183  and  _186
REMARK   84  A    between atoms: _186  and  _187
REMARK   85  A    between atoms: _187  and  _189
REMARK   86  A    between atoms: _189  and  MN_338
REMARK   87  A    between atoms: _190  and  _192
REMARK   88  A    between atoms: _192  and  _193
REMARK   89  A    between atoms: _192  and  _195
REMARK   90  A    between atoms: _195  and  _196
REMARK   91  A    between atoms: _199  and  _201
REMARK   92  A    between atoms: _201  and  _202
REMARK   93  A    between atoms: _201  and  _204
REMARK   94  A    between atoms: _204  and  _205
REMARK   95  A    between atoms: _208  and  _210
REMARK   96  A    between atoms: _210  and  _211
REMARK   97  A    between atoms: _210  and  _213
REMARK   98  A    between atoms: _213  and  _214
REMARK   99  A    between atoms: _214  and  _215
REMARK  100  A    between atoms: _215  and  _216
REMARK  101  A    between atoms: _216  and  _217
REMARK  102  A    between atoms: _221  and  _223
REMARK  103  A    between atoms: _223  and  _224
REMARK  104  A    between atoms: _223  and  _226
REMARK  105  A    between atoms: _226  and  _227
REMARK  106  A    between atoms: _232  and  _234
REMARK  107  A    between atoms: _234  and  _235
REMARK  108  A    between atoms: _234  and  _237
REMARK  109  A    between atoms: _237  and  _238
REMARK  110  A    between atoms: _238  and  _239
REMARK  111  A    between atoms: _244  and  _246
REMARK  112  A    between atoms: _246  and  _247
REMARK  113  A    between atoms: _246  and  _249
REMARK  114  A    between atoms: _249  and  _250
REMARK  115  A    between atoms: _252  and  _254
REMARK  116  A    between atoms: _254  and  _255
REMARK  117  A    between atoms: _254  and  _257
REMARK  118  A    between atoms: _257  and  _258
REMARK  119  A    between atoms: _263  and  _265
REMARK  120  A    between atoms: _265  and  _266
REMARK  121  A    between atoms: _265  and  _268
REMARK  122  A    between atoms: _268  and  _269
REMARK  123  A    between atoms: _269  and  _270
REMARK  124  A    between atoms: _270  and  _271
REMARK  125  A    between atoms: _280  and  _282
REMARK  126  A    between atoms: _282  and  _283
REMARK  127  A    between atoms: _282  and  _285
REMARK  128  A    between atoms: _285  and  _286
REMARK  129  A    between atoms: _288  and  _290
REMARK  130  A    between atoms: _290  and  _291
REMARK  131  A    between atoms: _293  and  _295
REMARK  132  A    between atoms: _295  and  _296
REMARK  133  A    between atoms: _295  and  _298
REMARK  134  A    between atoms: _298  and  _299
REMARK  135  A    between atoms: _299  and  _300
REMARK  136  A    between atoms: _303  and  _305
REMARK  137  A    between atoms: _305  and  _306
REMARK  138  A    between atoms: _305  and  _308
REMARK  139  A    between atoms: _308  and  _309
REMARK  140  A    between atoms: _309  and  _310
REMARK  141  A    between atoms: _310  and  _311
REMARK  142  A    between atoms: _311  and  _312
REMARK  143  A    between atoms: _316  and  _318
REMARK  144  A    between atoms: _318  and  _319
REMARK  145  A    between atoms: _321  and  _323
REMARK  146  A    between atoms: _323  and  _324
REMARK  147  A    between atoms: _323  and  _326
REMARK  148  A    between atoms: _326  and  _327
REMARK  149  A    between atoms: _327  and  _328
REMARK  150  A    between atoms: _328  and  _329
REMARK                            x       y       z     vdW  Elec       q    Type
REMARK                         _______ _______ _______ _____ _____    ______ ____
ROOT
ATOM      1  CA  SER A   2      32.783  63.243  13.940  0.00  0.00    +0.178 C 
ENDROOT
BRANCH   1   4
ATOM      2  C   PRO A   1      31.599  61.164  13.145  0.00  0.00    +0.239 C 
ATOM      3  O   PRO A   1      31.415  60.679  14.264  0.00  0.00    -0.274 OA
ATOM      4  N   SER A   2      32.202  62.342  12.921  0.00  0.00    -0.295 N 
ATOM      5  H   SER A   2      32.267  62.653  11.931  0.00  0.00    +0.150 HD
BRANCH   2  10
ATOM      6  N   PRO A   1      30.358  59.207  12.327  0.00  0.00    -0.210 NA
ATOM      7  CD  PRO A   1      28.901  59.441  12.379  0.00  0.00    +0.089 C 
ATOM      8  CG  PRO A   1      28.783  60.934  12.088  0.00  0.00    +0.021 C 
ATOM      9  CB  PRO A   1      29.967  61.211  11.205  0.00  0.00    +0.028 C 
ATOM     10  CA  PRO A   1      31.067  60.422  11.910  0.00  0.00    +0.149 C 
ENDBRANCH   2  10
ENDBRANCH   1   4
BRANCH   1  11
ATOM     11  C   SER A   2      32.455  62.981  15.416  0.00  0.00    +0.243 C 
ATOM     12  N   GLY A   3      32.000  64.020  16.121  0.00  0.00    -0.295 N 
ATOM     13  H   GLY A   3      31.904  64.948  15.661  0.00  0.00    +0.150 HD
ATOM     14  O   SER A   2      32.668  61.876  15.919  0.00  0.00    -0.273 OA
BRANCH  12  15
ATOM     15  CA  GLY A   3      31.636  63.875  17.522  0.00  0.00    +0.176 C 
BRANCH  15  16
ATOM     16  C   GLY A   3      32.435  64.721  18.494  0.00  0.00    +0.243 C 
ATOM     17  N   ALA A   4      31.836  65.022  19.642  0.00  0.00    -0.298 N 
ATOM     18  H   ALA A   4      30.864  64.695  19.813  0.00  0.00    +0.150 HD
ATOM     19  O   GLY A   3      33.557  65.139  18.197  0.00  0.00    -0.273 OA
BRANCH  17  20
ATOM     20  CA  ALA A   4      32.520  65.802  20.664  0.00  0.00    +0.137 C 
ATOM     21  CB  ALA A   4      31.539  66.662  21.429  0.00  0.00    +0.030 C 
BRANCH  20  22
ATOM     22  C   ALA A   4      33.179  64.805  21.595  0.00  0.00    +0.227 C 
ATOM     23  O   ALA A   4      32.502  64.057  22.311  0.00  0.00    -0.286 OA
ENDBRANCH  20  22
ENDBRANCH  17  20
ENDBRANCH  15  16
ENDBRANCH  12  15
ENDBRANCH   1  11
BRANCH   1  24
ATOM     24  CB  SER A   2      32.422  64.696  13.610  0.00  0.00    +0.166 C 
BRANCH  24  25
ATOM     25  OG  SER A   2      33.128  65.206  12.508  0.00  0.00    -0.380 OA
ATOM     26  H   SER A   2      32.928  64.659  11.708  0.00  0.00    +0.211 HD
ENDBRANCH  24  25
ENDBRANCH   1  24
TORSDOF 9
REMARK  Name = ../refined-set-2016/1pdz/1pdz_pocket.pdb
REMARK  150 active torsions:
REMARK  status: ('A' for Active; 'I' for Inactive)
REMARK    1  A    between atoms: _1  and  _3
REMARK    2  A    between atoms: _3  and  _4
REMARK    3  A    between atoms: _3  and  _6
REMARK    4  A    between atoms: _6  and  _7
REMARK    5  A    between atoms: _7  and  _8
REMARK    6  A    between atoms: _8  and  _9
REMARK    7  A    between atoms: _19  and  _20
REMARK    8  A    between atoms: _25  and  _27
REMARK    9  A    between atoms: _27  and  _28
REMARK   10  A    between atoms: _27  and  _30
REMARK   11  A    between atoms: _30  and  _31
REMARK   12  A    between atoms: _33  and  _35
REMARK   13  A    between atoms: _35  and  _36
REMARK   14  A    between atoms: _38  and  _40
REMARK   15  A    between atoms: _40  and  _41
REMARK   16  A    between atoms: _44  and  _46
REMARK   17  A    between atoms: _46  and  _47
REMARK   18  A    between atoms: _46  and  _49
REMARK   19  A    between atoms: _49  and  _50
REMARK   20  A    between atoms: _50  and  _51
REMARK   21  A    between atoms: _54  and  _56
REMARK   22  A    between atoms: _56  and  _57
REMARK   23  A    between atoms: _56  and  _59
REMARK   24  A    between atoms: _59  and  _60
REMARK   25  A    between atoms: _60  and  _61
REMARK   26  A    between atoms: _64  and  _66
REMARK   27  A    between atoms: _66  and  _67
REMARK   28  A    between atoms: _66  and  _69
REMARK   29  A    between atoms: _69  and  _70
REMARK   30  A    between atoms: _70  and  _71
REMARK   31  A    between atoms: _71  and  _72
REMARK   32  A    between atoms: _81  and  _83
REMARK   33  A    between atoms: _83  and  _84
REMARK   34  A    between atoms: _83  and  _86
REMARK   35  A    between atoms: _86  and  _87
REMARK   36  A    between atoms: _92  and  _94
REMARK   37  A    between atoms: _94  and  _95
REMARK   38  A    between atoms: _94  and  _97
REMARK   39  A    between atoms: _97  and  _98
REMARK   40  A    between atoms: _100  and  _102
REMARK   41  A    between atoms: _102  and  _103
REMARK   42  A    between atoms: _102  and  _105
REMARK   43  A    between atoms: _105  and  _106
REMARK   44  A    between atoms: _111  and  _113
REMARK   45  A    between atoms: _113  and  _114
REMARK   46  A    between atoms: _113  and  _116
REMARK   47  A    between atoms: _116  and  _117
REMARK   48  A    between atoms: _117  and  _118
REMARK   49  A    between atoms: _123  and  _125
REMARK   50  A    between atoms: _125  and  _126
REMARK   51  A    between atoms: _125  and  _128
REMARK   52  A    between atoms: _128  and  _129
REMARK   53  A    between atoms: _129  and  _130
REMARK   54  A    between atoms: _133  and  _135
REMARK   55  A    between atoms: _135  and  _136
REMARK   56  A    between atoms: _135  and  _138
REMARK   57  A    between atoms: _138  and  _139
REMARK   58  A    between atoms: _142  and  _144
REMARK   59  A    between atoms: _144  and  _145
REMARK   60  A    between atoms: _144  and  _147
REMARK   61  A    between atoms: _147  and  _148
REMARK   62  A    between atoms: _148  and  _149
REMARK   63  A    between atoms: _152  and  _154
REMARK   64  A    between atoms: _154  and  _155
REMARK   65  A    between atoms: _154  and  _157
REMARK   66  A    between atoms: _157  and  _158
REMARK   67  A    between atoms: _158  and  _160
REMARK   68  A    between atoms: _160  and  MN_338
REMARK   69  A    between atoms: _161  and  _163
REMARK   70  A    between atoms: _163  and  _164
REMARK   71  A    between atoms: _163  and  _166
REMARK   72  A    between atoms: _166  and  _167
REMARK   73  A    between atoms: _167  and  _168
REMARK   74  A    between atoms: _171  and  _173
REMARK   75  A    between atoms: _173  and  _174
REMARK   76  A    between atoms: _173  and  _176
REMARK   77  A    between atoms: _176  and  _177
REMARK   78  A    between atoms: _177  and  _178
REMARK   79  A    between atoms: _178  and  _180
REMARK   80  A    between atoms: _180  and  MN_338
REMARK   81  A    between atoms: _181  and  _183
REMARK   82  A    between atoms: _183  and  _184
REMARK   83  A    between atoms: _183  and  _186
REMARK   84  A    between atoms: _186  and  _187
REMARK   85  A    between atoms: _187  and  _189
REMARK   86  A    between atoms: _189  and  MN_338
REMARK   87  A    between atoms: _190  and  _192
REMARK   88  A    between atoms: _192  and  _193
REMARK   89  A    between atoms: _192  and  _195
REMARK   90  A    between atoms: _195  and  _196
REMARK   91  A    between atoms: _199  and  _201
REMARK   92  A    between atoms: _201  and  _202
REMARK   93  A    between atoms: _201  and  _204
REMARK   94  A    between atoms: _204  and  _205
REMARK   95  A    between atoms: _208  and  _210
REMARK   96  A    between atoms: _210  and  _211
REMARK   97  A    between atoms: _210  and  _213
REMARK   98  A    between atoms: _213  and  _214
REMARK   99  A    between atoms: _214  and  _215
REMARK  100  A    between atoms: _215  and  _216
REMARK  101  A    between atoms: _216  and  _217
REMARK  102  A    between atoms: _221  and  _223
REMARK  103  A    between atoms: _223  and  _224
REMARK  104  A    between atoms: _223  and  _226
REMARK  105  A    between atoms: _226  and  _227
REMARK  106  A    between atoms: _232  and  _234
REMARK  107  A    between atoms: _234  and  _235
REMARK  108  A    between atoms: _234  and  _237
REMARK  109  A    between atoms: _237  and  _238
REMARK  110  A    between atoms: _238  and  _239
REMARK  111  A    between atoms: _244  and  _246
REMARK  112  A    between atoms: _246  and  _247
REMARK  113  A    between atoms: _246  and  _249
REMARK  114  A    between atoms: _249  and  _250
REMARK  115  A    between atoms: _252  and  _254
REMARK  116  A    between atoms: _254  and  _255
REMARK  117  A    between atoms: _254  and  _257
REMARK  118  A    between atoms: _257  and  _258
REMARK  119  A    between atoms: _263  and  _265
REMARK  120  A    between atoms: _265  and  _266
REMARK  121  A    between atoms: _265  and  _268
REMARK  122  A    between atoms: _268  and  _269
REMARK  123  A    between atoms: _269  and  _270
REMARK  124  A    between atoms: _270  and  _271
REMARK  125  A    between atoms: _280  and  _282
REMARK  126  A    between atoms: _282  and  _283
REMARK  127  A    between atoms: _282  and  _285
REMARK  128  A    between atoms: _285  and  _286
REMARK  129  A    between atoms: _288  and  _290
REMARK  130  A    between atoms: _290  and  _291
REMARK  131  A    between atoms: _293  and  _295
REMARK  132  A    between atoms: _295  and  _296
REMARK  133  A    between atoms: _295  and  _298
REMARK  134  A    between atoms: _298  and  _299
REMARK  135  A    between atoms: _299  and  _300
REMARK  136  A    between atoms: _303  and  _305
REMARK  137  A    between atoms: _305  and  _306
REMARK  138  A    between atoms: _305  and  _308
REMARK  139  A    between atoms: _308  and  _309
REMARK  140  A    between atoms: _309  and  _310
REMARK  141  A    between atoms: _310  and  _311
REMARK  142  A    between atoms: _311  and  _312
REMARK  143  A    between atoms: _316  and  _318
REMARK  144  A    between atoms: _318  and  _319
REMARK  145  A    between atoms: _321  and  _323
REMARK  146  A    between atoms: _323  and  _324
REMARK  147  A    between atoms: _323  and  _326
REMARK  148  A    between atoms: _326  and  _327
REMARK  149  A    between atoms: _327  and  _328
REMARK  150  A    between atoms: _328  and  _329
REMARK                            x       y       z     vdW  Elec       q    Type
REMARK                         _______ _______ _______ _____ _____    ______ ____
ROOT
ATOM      1  CA  GLU A   1      25.971  66.520  23.403  0.00  0.00    +0.134 C 
ENDROOT
BRANCH   1   2
ATOM      2  N   GLU A   1      26.147  67.696  24.239  0.00  0.00    -0.239 NA
ATOM      3  H   GLU A   1      27.002  68.277  24.128  0.00  0.00    +0.142 HD
ENDBRANCH   1   2
BRANCH   1   4
ATOM      4  C   GLU A   1      26.533  65.255  24.002  0.00  0.00    +0.224 C 
ATOM      5  O   GLU A   1      27.286  65.304  24.981  0.00  0.00    -0.287 OA
ENDBRANCH   1   4
BRANCH   1   6
ATOM      6  CB  GLU A   1      26.586  66.743  22.035  0.00  0.00    +0.037 C 
BRANCH   6   7
ATOM      7  CG  GLU A   1      28.023  67.180  22.060  0.00  0.00    +0.116 C 
BRANCH   7   8
ATOM      8  CD  GLU A   1      28.355  68.043  20.860  0.00  0.00    +0.365 C 
ATOM      9  OE2 GLU A   1      28.540  69.266  21.063  0.00  0.00    -0.246 OA
ATOM     10  OE1 GLU A   1      28.410  67.506  19.722  0.00  0.00    -0.246 OA
ENDBRANCH   7   8
ENDBRANCH   6   7
ENDBRANCH   1   6
TORSDOF 5
REMARK  Name = ../refined-set-2016/1pdz/1pdz_pocket.pdb
REMARK  150 active torsions:
REMARK  status: ('A' for Active; 'I' for Inactive)
REMARK    1  A    between atoms: _1  and  _3
REMARK    2  A    between atoms: _3  and  _4
REMARK    3  A    between atoms: _3  and  _6
REMARK    4  A    between atoms: _6  and  _7
REMARK    5  A    between atoms: _7  and  _8
REMARK    6  A    between atoms: _8  and  _9
REMARK    7  A    between atoms: _19  and  _20
REMARK    8  A    between atoms: _25  and  _27
REMARK    9  A    between atoms: _27  and  _28
REMARK   10  A    between atoms: _27  and  _30
REMARK   11  A    between atoms: _30  and  _31
REMARK   12  A    between atoms: _33  and  _35
REMARK   13  A    between atoms: _35  and  _36
REMARK   14  A    between atoms: _38  and  _40
REMARK   15  A    between atoms: _40  and  _41
REMARK   16  A    between atoms: _44  and  _46
REMARK   17  A    between atoms: _46  and  _47
REMARK   18  A    between atoms: _46  and  _49
REMARK   19  A    between atoms: _49  and  _50
REMARK   20  A    between atoms: _50  and  _51
REMARK   21  A    between atoms: _54  and  _56
REMARK   22  A    between atoms: _56  and  _57
REMARK   23  A    between atoms: _56  and  _59
REMARK   24  A    between atoms: _59  and  _60
REMARK   25  A    between atoms: _60  and  _61
REMARK   26  A    between atoms: _64  and  _66
REMARK   27  A    between atoms: _66  and  _67
REMARK   28  A    between atoms: _66  and  _69
REMARK   29  A    between atoms: _69  and  _70
REMARK   30  A    between atoms: _70  and  _71
REMARK   31  A    between atoms: _71  and  _72
REMARK   32  A    between atoms: _81  and  _83
REMARK   33  A    between atoms: _83  and  _84
REMARK   34  A    between atoms: _83  and  _86
REMARK   35  A    between atoms: _86  and  _87
REMARK   36  A    between atoms: _92  and  _94
REMARK   37  A    between atoms: _94  and  _95
REMARK   38  A    between atoms: _94  and  _97
REMARK   39  A    between atoms: _97  and  _98
REMARK   40  A    between atoms: _100  and  _102
REMARK   41  A    between atoms: _102  and  _103
REMARK   42  A    between atoms: _102  and  _105
REMARK   43  A    between atoms: _105  and  _106
REMARK   44  A    between atoms: _111  and  _113
REMARK   45  A    between atoms: _113  and  _114
REMARK   46  A    between atoms: _113  and  _116
REMARK   47  A    between atoms: _116  and  _117
REMARK   48  A    between atoms: _117  and  _118
REMARK   49  A    between atoms: _123  and  _125
REMARK   50  A    between atoms: _125  and  _126
REMARK   51  A    between atoms: _125  and  _128
REMARK   52  A    between atoms: _128  and  _129
REMARK   53  A    between atoms: _129  and  _130
REMARK   54  A    between atoms: _133  and  _135
REMARK   55  A    between atoms: _135  and  _136
REMARK   56  A    between atoms: _135  and  _138
REMARK   57  A    between atoms: _138  and  _139
REMARK   58  A    between atoms: _142  and  _144
REMARK   59  A    between atoms: _144  and  _145
REMARK   60  A    between atoms: _144  and  _147
REMARK   61  A    between atoms: _147  and  _148
REMARK   62  A    between atoms: _148  and  _149
REMARK   63  A    between atoms: _152  and  _154
REMARK   64  A    between atoms: _154  and  _155
REMARK   65  A    between atoms: _154  and  _157
REMARK   66  A    between atoms: _157  and  _158
REMARK   67  A    between atoms: _158  and  _160
REMARK   68  A    between atoms: _160  and  MN_338
REMARK   69  A    between atoms: _161  and  _163
REMARK   70  A    between atoms: _163  and  _164
REMARK   71  A    between atoms: _163  and  _166
REMARK   72  A    between atoms: _166  and  _167
REMARK   73  A    between atoms: _167  and  _168
REMARK   74  A    between atoms: _171  and  _173
REMARK   75  A    between atoms: _173  and  _174
REMARK   76  A    between atoms: _173  and  _176
REMARK   77  A    between atoms: _176  and  _177
REMARK   78  A    between atoms: _177  and  _178
REMARK   79  A    between atoms: _178  and  _180
REMARK   80  A    between atoms: _180  and  MN_338
REMARK   81  A    between atoms: _181  and  _183
REMARK   82  A    between atoms: _183  and  _184
REMARK   83  A    between atoms: _183  and  _186
REMARK   84  A    between atoms: _186  and  _187
REMARK   85  A    between atoms: _187  and  _189
REMARK   86  A    between atoms: _189  and  MN_338
REMARK   87  A    between atoms: _190  and  _192
REMARK   88  A    between atoms: _192  and  _193
REMARK   89  A    between atoms: _192  and  _195
REMARK   90  A    between atoms: _195  and  _196
REMARK   91  A    between atoms: _199  and  _201
REMARK   92  A    between atoms: _201  and  _202
REMARK   93  A    between atoms: _201  and  _204
REMARK   94  A    between atoms: _204  and  _205
REMARK   95  A    between atoms: _208  and  _210
REMARK   96  A    between atoms: _210  and  _211
REMARK   97  A    between atoms: _210  and  _213
REMARK   98  A    between atoms: _213  and  _214
REMARK   99  A    between atoms: _214  and  _215
REMARK  100  A    between atoms: _215  and  _216
REMARK  101  A    between atoms: _216  and  _217
REMARK  102  A    between atoms: _221  and  _223
REMARK  103  A    between atoms: _223  and  _224
REMARK  104  A    between atoms: _223  and  _226
REMARK  105  A    between atoms: _226  and  _227
REMARK  106  A    between atoms: _232  and  _234
REMARK  107  A    between atoms: _234  and  _235
REMARK  108  A    between atoms: _234  and  _237
REMARK  109  A    between atoms: _237  and  _238
REMARK  110  A    between atoms: _238  and  _239
REMARK  111  A    between atoms: _244  and  _246
REMARK  112  A    between atoms: _246  and  _247
REMARK  113  A    between atoms: _246  and  _249
REMARK  114  A    between atoms: _249  and  _250
REMARK  115  A    between atoms: _252  and  _254
REMARK  116  A    between atoms: _254  and  _255
REMARK  117  A    between atoms: _254  and  _257
REMARK  118  A    between atoms: _257  and  _258
REMARK  119  A    between atoms: _263  and  _265
REMARK  120  A    between atoms: _265  and  _266
REMARK  121  A    between atoms: _265  and  _268
REMARK  122  A    between atoms: _268  and  _269
REMARK  123  A    between atoms: _269  and  _270
REMARK  124  A    between atoms: _270  and  _271
REMARK  125  A    between atoms: _280  and  _282
REMARK  126  A    between atoms: _282  and  _283
REMARK  127  A    between atoms: _282  and  _285
REMARK  128  A    between atoms: _285  and  _286
REMARK  129  A    between atoms: _288  and  _290
REMARK  130  A    between atoms: _290  and  _291
REMARK  131  A    between atoms: _293  and  _295
REMARK  132  A    between atoms: _295  and  _296
REMARK  133  A    between atoms: _295  and  _298
REMARK  134  A    between atoms: _298  and  _299
REMARK  135  A    between atoms: _299  and  _300
REMARK  136  A    between atoms: _303  and  _305
REMARK  137  A    between atoms: _305  and  _306
REMARK  138  A    between atoms: _305  and  _308
REMARK  139  A    between atoms: _308  and  _309
REMARK  140  A    between atoms: _309  and  _310
REMARK  141  A    between atoms: _310  and  _311
REMARK  142  A    between atoms: _311  and  _312
REMARK  143  A    between atoms: _316  and  _318
REMARK  144  A    between atoms: _318  and  _319
REMARK  145  A    between atoms: _321  and  _323
REMARK  146  A    between atoms: _323  and  _324
REMARK  147  A    between atoms: _323  and  _326
REMARK  148  A    between atoms: _326  and  _327
REMARK  149  A    between atoms: _327  and  _328
REMARK  150  A    between atoms: _328  and  _329
REMARK                            x       y       z     vdW  Elec       q    Type
REMARK                         _______ _______ _______ _____ _____    ______ ____
ROOT
ATOM      1  CA  GLU A   1      32.272  60.363  21.646  0.00  0.00    +0.134 C 
ENDROOT
BRANCH   1   2
ATOM      2  N   GLU A   1      31.622  61.367  22.458  0.00  0.00    -0.239 NA
ATOM      3  H   GLU A   1      31.746  62.374  22.230  0.00  0.00    +0.142 HD
ENDBRANCH   1   2
BRANCH   1   4
ATOM      4  C   GLU A   1      33.540  60.061  22.412  0.00  0.00    +0.224 C 
ATOM      5  O   GLU A   1      34.248  60.974  22.841  0.00  0.00    -0.287 OA
ENDBRANCH   1   4
BRANCH   1   6
ATOM      6  CB  GLU A   1      32.616  60.894  20.271  0.00  0.00    +0.037 C 
BRANCH   6   7
ATOM      7  CG  GLU A   1      33.947  61.590  20.187  0.00  0.00    +0.116 C 
BRANCH   7   8
ATOM      8  CD  GLU A   1      34.309  61.902  18.777  0.00  0.00    +0.365 C 
ATOM      9  OE2 GLU A   1      34.951  62.951  18.541  0.00  0.00    -0.246 OA
ATOM     10  OE1 GLU A   1      33.948  61.087  17.901  0.00  0.00    -0.246 OA
ENDBRANCH   7   8
ENDBRANCH   6   7
ENDBRANCH   1   6
TORSDOF 5
REMARK  Name = ../refined-set-2016/1pdz/1pdz_pocket.pdb
REMARK  150 active torsions:
REMARK  status: ('A' for Active; 'I' for Inactive)
REMARK    1  A    between atoms: _1  and  _3
REMARK    2  A    between atoms: _3  and  _4
REMARK    3  A    between atoms: _3  and  _6
REMARK    4  A    between atoms: _6  and  _7
REMARK    5  A    between atoms: _7  and  _8
REMARK    6  A    between atoms: _8  and  _9
REMARK    7  A    between atoms: _19  and  _20
REMARK    8  A    between atoms: _25  and  _27
REMARK    9  A    between atoms: _27  and  _28
REMARK   10  A    between atoms: _27  and  _30
REMARK   11  A    between atoms: _30  and  _31
REMARK   12  A    between atoms: _33  and  _35
REMARK   13  A    between atoms: _35  and  _36
REMARK   14  A    between atoms: _38  and  _40
REMARK   15  A    between atoms: _40  and  _41
REMARK   16  A    between atoms: _44  and  _46
REMARK   17  A    between atoms: _46  and  _47
REMARK   18  A    between atoms: _46  and  _49
REMARK   19  A    between atoms: _49  and  _50
REMARK   20  A    between atoms: _50  and  _51
REMARK   21  A    between atoms: _54  and  _56
REMARK   22  A    between atoms: _56  and  _57
REMARK   23  A    between atoms: _56  and  _59
REMARK   24  A    between atoms: _59  and  _60
REMARK   25  A    between atoms: _60  and  _61
REMARK   26  A    between atoms: _64  and  _66
REMARK   27  A    between atoms: _66  and  _67
REMARK   28  A    between atoms: _66  and  _69
REMARK   29  A    between atoms: _69  and  _70
REMARK   30  A    between atoms: _70  and  _71
REMARK   31  A    between atoms: _71  and  _72
REMARK   32  A    between atoms: _81  and  _83
REMARK   33  A    between atoms: _83  and  _84
REMARK   34  A    between atoms: _83  and  _86
REMARK   35  A    between atoms: _86  and  _87
REMARK   36  A    between atoms: _92  and  _94
REMARK   37  A    between atoms: _94  and  _95
REMARK   38  A    between atoms: _94  and  _97
REMARK   39  A    between atoms: _97  and  _98
REMARK   40  A    between atoms: _100  and  _102
REMARK   41  A    between atoms: _102  and  _103
REMARK   42  A    between atoms: _102  and  _105
REMARK   43  A    between atoms: _105  and  _106
REMARK   44  A    between atoms: _111  and  _113
REMARK   45  A    between atoms: _113  and  _114
REMARK   46  A    between atoms: _113  and  _116
REMARK   47  A    between atoms: _116  and  _117
REMARK   48  A    between atoms: _117  and  _118
REMARK   49  A    between atoms: _123  and  _125
REMARK   50  A    between atoms: _125  and  _126
REMARK   51  A    between atoms: _125  and  _128
REMARK   52  A    between atoms: _128  and  _129
REMARK   53  A    between atoms: _129  and  _130
REMARK   54  A    between atoms: _133  and  _135
REMARK   55  A    between atoms: _135  and  _136
REMARK   56  A    between atoms: _135  and  _138
REMARK   57  A    between atoms: _138  and  _139
REMARK   58  A    between atoms: _142  and  _144
REMARK   59  A    between atoms: _144  and  _145
REMARK   60  A    between atoms: _144  and  _147
REMARK   61  A    between atoms: _147  and  _148
REMARK   62  A    between atoms: _148  and  _149
REMARK   63  A    between atoms: _152  and  _154
REMARK   64  A    between atoms: _154  and  _155
REMARK   65  A    between atoms: _154  and  _157
REMARK   66  A    between atoms: _157  and  _158
REMARK   67  A    between atoms: _158  and  _160
REMARK   68  A    between atoms: _160  and  MN_338
REMARK   69  A    between atoms: _161  and  _163
REMARK   70  A    between atoms: _163  and  _164
REMARK   71  A    between atoms: _163  and  _166
REMARK   72  A    between atoms: _166  and  _167
REMARK   73  A    between atoms: _167  and  _168
REMARK   74  A    between atoms: _171  and  _173
REMARK   75  A    between atoms: _173  and  _174
REMARK   76  A    between atoms: _173  and  _176
REMARK   77  A    between atoms: _176  and  _177
REMARK   78  A    between atoms: _177  and  _178
REMARK   79  A    between atoms: _178  and  _180
REMARK   80  A    between atoms: _180  and  MN_338
REMARK   81  A    between atoms: _181  and  _183
REMARK   82  A    between atoms: _183  and  _184
REMARK   83  A    between atoms: _183  and  _186
REMARK   84  A    between atoms: _186  and  _187
REMARK   85  A    between atoms: _187  and  _189
REMARK   86  A    between atoms: _189  and  MN_338
REMARK   87  A    between atoms: _190  and  _192
REMARK   88  A    between atoms: _192  and  _193
REMARK   89  A    between atoms: _192  and  _195
REMARK   90  A    between atoms: _195  and  _196
REMARK   91  A    between atoms: _199  and  _201
REMARK   92  A    between atoms: _201  and  _202
REMARK   93  A    between atoms: _201  and  _204
REMARK   94  A    between atoms: _204  and  _205
REMARK   95  A    between atoms: _208  and  _210
REMARK   96  A    between atoms: _210  and  _211
REMARK   97  A    between atoms: _210  and  _213
REMARK   98  A    between atoms: _213  and  _214
REMARK   99  A    between atoms: _214  and  _215
REMARK  100  A    between atoms: _215  and  _216
REMARK  101  A    between atoms: _216  and  _217
REMARK  102  A    between atoms: _221  and  _223
REMARK  103  A    between atoms: _223  and  _224
REMARK  104  A    between atoms: _223  and  _226
REMARK  105  A    between atoms: _226  and  _227
REMARK  106  A    between atoms: _232  and  _234
REMARK  107  A    between atoms: _234  and  _235
REMARK  108  A    between atoms: _234  and  _237
REMARK  109  A    between atoms: _237  and  _238
REMARK  110  A    between atoms: _238  and  _239
REMARK  111  A    between atoms: _244  and  _246
REMARK  112  A    between atoms: _246  and  _247
REMARK  113  A    between atoms: _246  and  _249
REMARK  114  A    between atoms: _249  and  _250
REMARK  115  A    between atoms: _252  and  _254
REMARK  116  A    between atoms: _254  and  _255
REMARK  117  A    between atoms: _254  and  _257
REMARK  118  A    between atoms: _257  and  _258
REMARK  119  A    between atoms: _263  and  _265
REMARK  120  A    between atoms: _265  and  _266
REMARK  121  A    between atoms: _265  and  _268
REMARK  122  A    between atoms: _268  and  _269
REMARK  123  A    between atoms: _269  and  _270
REMARK  124  A    between atoms: _270  and  _271
REMARK  125  A    between atoms: _280  and  _282
REMARK  126  A    between atoms: _282  and  _283
REMARK  127  A    between atoms: _282  and  _285
REMARK  128  A    between atoms: _285  and  _286
REMARK  129  A    between atoms: _288  and  _290
REMARK  130  A    between atoms: _290  and  _291
REMARK  131  A    between atoms: _293  and  _295
REMARK  132  A    between atoms: _295  and  _296
REMARK  133  A    between atoms: _295  and  _298
REMARK  134  A    between atoms: _298  and  _299
REMARK  135  A    between atoms: _299  and  _300
REMARK  136  A    between atoms: _303  and  _305
REMARK  137  A    between atoms: _305  and  _306
REMARK  138  A    between atoms: _305  and  _308
REMARK  139  A    between atoms: _308  and  _309
REMARK  140  A    between atoms: _309  and  _310
REMARK  141  A    between atoms: _310  and  _311
REMARK  142  A    between atoms: _311  and  _312
REMARK  143  A    between atoms: _316  and  _318
REMARK  144  A    between atoms: _318  and  _319
REMARK  145  A    between atoms: _321  and  _323
REMARK  146  A    between atoms: _323  and  _324
REMARK  147  A    between atoms: _323  and  _326
REMARK  148  A    between atoms: _326  and  _327
REMARK  149  A    between atoms: _327  and  _328
REMARK  150  A    between atoms: _328  and  _329
REMARK                            x       y       z     vdW  Elec       q    Type
REMARK                         _______ _______ _______ _____ _____    ______ ____
ROOT
ATOM      1  NE  ARG A   1      37.255  61.261  18.538  0.00  0.00    -0.265 N 
ATOM      2  HE  ARG A   1      36.758  62.118  18.856  0.00  0.00    +0.259 HD
ATOM      3  CZ  ARG A   1      37.456  61.113  17.233  0.00  0.00    +0.342 C 
ATOM      4  NH2 ARG A   1      38.079  60.034  16.767  0.00  0.00    -0.292 N 
ATOM      5 HH21 ARG A   1      38.412  59.301  17.425  0.00  0.00    +0.255 HD
ATOM      6 HH22 ARG A   1      38.233  59.924  15.744  0.00  0.00    +0.255 HD
ATOM      7  NH1 ARG A   1      37.034  62.054  16.393  0.00  0.00    -0.292 N 
ATOM      8 HH11 ARG A   1      36.550  62.899  16.759  0.00  0.00    +0.255 HD
ATOM      9 HH12 ARG A   1      37.188  61.945  15.370  0.00  0.00    +0.255 HD
ENDROOT
BRANCH   1  10
ATOM     10  CD  ARG A   1      37.680  60.310  19.556  0.00  0.00    +0.174 C 
BRANCH  10  11
ATOM     11  CG  ARG A   1      37.989  61.050  20.814  0.00  0.00    +0.045 C 
BRANCH  11  12
ATOM     12  CB  ARG A   1      38.980  60.308  21.649  0.00  0.00    +0.029 C 
BRANCH  12  13
ATOM     13  CA  ARG A   1      38.515  58.928  22.074  0.00  0.00    +0.133 C 
BRANCH  13  14
ATOM     14  N   ARG A   1      37.224  59.008  22.742  0.00  0.00    -0.239 NA
ATOM     15  H   ARG A   1      37.068  59.761  23.442  0.00  0.00    +0.142 HD
ENDBRANCH  13  14
BRANCH  13  16
ATOM     16  C   ARG A   1      39.439  58.382  23.157  0.00  0.00    +0.224 C 
ATOM     17  O   ARG A   1      39.034  58.277  24.316  0.00  0.00    -0.287 OA
ENDBRANCH  13  16
ENDBRANCH  12  13
ENDBRANCH  11  12
ENDBRANCH  10  11
ENDBRANCH   1  10
TORSDOF 6
REMARK  Name = ../refined-set-2016/1pdz/1pdz_pocket.pdb
REMARK  150 active torsions:
REMARK  status: ('A' for Active; 'I' for Inactive)
REMARK    1  A    between atoms: _1  and  _3
REMARK    2  A    between atoms: _3  and  _4
REMARK    3  A    between atoms: _3  and  _6
REMARK    4  A    between atoms: _6  and  _7
REMARK    5  A    between atoms: _7  and  _8
REMARK    6  A    between atoms: _8  and  _9
REMARK    7  A    between atoms: _19  and  _20
REMARK    8  A    between atoms: _25  and  _27
REMARK    9  A    between atoms: _27  and  _28
REMARK   10  A    between atoms: _27  and  _30
REMARK   11  A    between atoms: _30  and  _31
REMARK   12  A    between atoms: _33  and  _35
REMARK   13  A    between atoms: _35  and  _36
REMARK   14  A    between atoms: _38  and  _40
REMARK   15  A    between atoms: _40  and  _41
REMARK   16  A    between atoms: _44  and  _46
REMARK   17  A    between atoms: _46  and  _47
REMARK   18  A    between atoms: _46  and  _49
REMARK   19  A    between atoms: _49  and  _50
REMARK   20  A    between atoms: _50  and  _51
REMARK   21  A    between atoms: _54  and  _56
REMARK   22  A    between atoms: _56  and  _57
REMARK   23  A    between atoms: _56  and  _59
REMARK   24  A    between atoms: _59  and  _60
REMARK   25  A    between atoms: _60  and  _61
REMARK   26  A    between atoms: _64  and  _66
REMARK   27  A    between atoms: _66  and  _67
REMARK   28  A    between atoms: _66  and  _69
REMARK   29  A    between atoms: _69  and  _70
REMARK   30  A    between atoms: _70  and  _71
REMARK   31  A    between atoms: _71  and  _72
REMARK   32  A    between atoms: _81  and  _83
REMARK   33  A    between atoms: _83  and  _84
REMARK   34  A    between atoms: _83  and  _86
REMARK   35  A    between atoms: _86  and  _87
REMARK   36  A    between atoms: _92  and  _94
REMARK   37  A    between atoms: _94  and  _95
REMARK   38  A    between atoms: _94  and  _97
REMARK   39  A    between atoms: _97  and  _98
REMARK   40  A    between atoms: _100  and  _102
REMARK   41  A    between atoms: _102  and  _103
REMARK   42  A    between atoms: _102  and  _105
REMARK   43  A    between atoms: _105  and  _106
REMARK   44  A    between atoms: _111  and  _113
REMARK   45  A    between atoms: _113  and  _114
REMARK   46  A    between atoms: _113  and  _116
REMARK   47  A    between atoms: _116  and  _117
REMARK   48  A    between atoms: _117  and  _118
REMARK   49  A    between atoms: _123  and  _125
REMARK   50  A    between atoms: _125  and  _126
REMARK   51  A    between atoms: _125  and  _128
REMARK   52  A    between atoms: _128  and  _129
REMARK   53  A    between atoms: _129  and  _130
REMARK   54  A    between atoms: _133  and  _135
REMARK   55  A    between atoms: _135  and  _136
REMARK   56  A    between atoms: _135  and  _138
REMARK   57  A    between atoms: _138  and  _139
REMARK   58  A    between atoms: _142  and  _144
REMARK   59  A    between atoms: _144  and  _145
REMARK   60  A    between atoms: _144  and  _147
REMARK   61  A    between atoms: _147  and  _148
REMARK   62  A    between atoms: _148  and  _149
REMARK   63  A    between atoms: _152  and  _154
REMARK   64  A    between atoms: _154  and  _155
REMARK   65  A    between atoms: _154  and  _157
REMARK   66  A    between atoms: _157  and  _158
REMARK   67  A    between atoms: _158  and  _160
REMARK   68  A    between atoms: _160  and  MN_338
REMARK   69  A    between atoms: _161  and  _163
REMARK   70  A    between atoms: _163  and  _164
REMARK   71  A    between atoms: _163  and  _166
REMARK   72  A    between atoms: _166  and  _167
REMARK   73  A    between atoms: _167  and  _168
REMARK   74  A    between atoms: _171  and  _173
REMARK   75  A    between atoms: _173  and  _174
REMARK   76  A    between atoms: _173  and  _176
REMARK   77  A    between atoms: _176  and  _177
REMARK   78  A    between atoms: _177  and  _178
REMARK   79  A    between atoms: _178  and  _180
REMARK   80  A    between atoms: _180  and  MN_338
REMARK   81  A    between atoms: _181  and  _183
REMARK   82  A    between atoms: _183  and  _184
REMARK   83  A    between atoms: _183  and  _186
REMARK   84  A    between atoms: _186  and  _187
REMARK   85  A    between atoms: _187  and  _189
REMARK   86  A    between atoms: _189  and  MN_338
REMARK   87  A    between atoms: _190  and  _192
REMARK   88  A    between atoms: _192  and  _193
REMARK   89  A    between atoms: _192  and  _195
REMARK   90  A    between atoms: _195  and  _196
REMARK   91  A    between atoms: _199  and  _201
REMARK   92  A    between atoms: _201  and  _202
REMARK   93  A    between atoms: _201  and  _204
REMARK   94  A    between atoms: _204  and  _205
REMARK   95  A    between atoms: _208  and  _210
REMARK   96  A    between atoms: _210  and  _211
REMARK   97  A    between atoms: _210  and  _213
REMARK   98  A    between atoms: _213  and  _214
REMARK   99  A    between atoms: _214  and  _215
REMARK  100  A    between atoms: _215  and  _216
REMARK  101  A    between atoms: _216  and  _217
REMARK  102  A    between atoms: _221  and  _223
REMARK  103  A    between atoms: _223  and  _224
REMARK  104  A    between atoms: _223  and  _226
REMARK  105  A    between atoms: _226  and  _227
REMARK  106  A    between atoms: _232  and  _234
REMARK  107  A    between atoms: _234  and  _235
REMARK  108  A    between atoms: _234  and  _237
REMARK  109  A    between atoms: _237  and  _238
REMARK  110  A    between atoms: _238  and  _239
REMARK  111  A    between atoms: _244  and  _246
REMARK  112  A    between atoms: _246  and  _247
REMARK  113  A    between atoms: _246  and  _249
REMARK  114  A    between atoms: _249  and  _250
REMARK  115  A    between atoms: _252  and  _254
REMARK  116  A    between atoms: _254  and  _255
REMARK  117  A    between atoms: _254  and  _257
REMARK  118  A    between atoms: _257  and  _258
REMARK  119  A    between atoms: _263  and  _265
REMARK  120  A    between atoms: _265  and  _266
REMARK  121  A    between atoms: _265  and  _268
REMARK  122  A    between atoms: _268  and  _269
REMARK  123  A    between atoms: _269  and  _270
REMARK  124  A    between atoms: _270  and  _271
REMARK  125  A    between atoms: _280  and  _282
REMARK  126  A    between atoms: _282  and  _283
REMARK  127  A    between atoms: _282  and  _285
REMARK  128  A    between atoms: _285  and  _286
REMARK  129  A    between atoms: _288  and  _290
REMARK  130  A    between atoms: _290  and  _291
REMARK  131  A    between atoms: _293  and  _295
REMARK  132  A    between atoms: _295  and  _296
REMARK  133  A    between atoms: _295  and  _298
REMARK  134  A    between atoms: _298  and  _299
REMARK  135  A    between atoms: _299  and  _300
REMARK  136  A    between atoms: _303  and  _305
REMARK  137  A    between atoms: _305  and  _306
REMARK  138  A    between atoms: _305  and  _308
REMARK  139  A    between atoms: _308  and  _309
REMARK  140  A    between atoms: _309  and  _310
REMARK  141  A    between atoms: _310  and  _311
REMARK  142  A    between atoms: _311  and  _312
REMARK  143  A    between atoms: _316  and  _318
REMARK  144  A    between atoms: _318  and  _319
REMARK  145  A    between atoms: _321  and  _323
REMARK  146  A    between atoms: _323  and  _324
REMARK  147  A    between atoms: _323  and  _326
REMARK  148  A    between atoms: _326  and  _327
REMARK  149  A    between atoms: _327  and  _328
REMARK  150  A    between atoms: _328  and  _329
REMARK                            x       y       z     vdW  Elec       q    Type
REMARK                         _______ _______ _______ _____ _____    ______ ____
ROOT
ATOM      1  CB  ASN A   1      29.073  73.913   2.852  0.00  0.00    +0.110 C 
ENDROOT
BRANCH   1   2
ATOM      2  CG  ASN A   1      29.889  74.904   3.622  0.00  0.00    +0.221 C 
ATOM      3  ND2 ASN A   1      30.444  74.484   4.751  0.00  0.00    -0.329 N 
ATOM      4 HD21 ASN A   1      31.015  75.137   5.324  0.00  0.00    +0.145 HD
ATOM      5 HD22 ASN A   1      30.308  73.501   5.063  0.00  0.00    +0.145 HD
ATOM      6  OD1 ASN A   1      30.019  76.051   3.211  0.00  0.00    -0.275 OA
ENDBRANCH   1   2
BRANCH   1   7
ATOM      7  CA  ASN A   1      28.415  74.530   1.625  0.00  0.00    +0.142 C 
BRANCH   7   8
ATOM      8  N   ASN A   1      27.503  73.583   1.030  0.00  0.00    -0.239 NA
ATOM      9  H   ASN A   1      27.505  72.592   1.345  0.00  0.00    +0.142 HD
ENDBRANCH   7   8
BRANCH   7  10
ATOM     10  C   ASN A   1      29.434  74.851   0.534  0.00  0.00    +0.225 C 
ATOM     11  O   ASN A   1      30.012  73.942  -0.033  0.00  0.00    -0.287 OA
ENDBRANCH   7  10
ENDBRANCH   1   7
TORSDOF 4
REMARK  Name = ../refined-set-2016/1pdz/1pdz_pocket.pdb
REMARK  150 active torsions:
REMARK  status: ('A' for Active; 'I' for Inactive)
REMARK    1  A    between atoms: _1  and  _3
REMARK    2  A    between atoms: _3  and  _4
REMARK    3  A    between atoms: _3  and  _6
REMARK    4  A    between atoms: _6  and  _7
REMARK    5  A    between atoms: _7  and  _8
REMARK    6  A    between atoms: _8  and  _9
REMARK    7  A    between atoms: _19  and  _20
REMARK    8  A    between atoms: _25  and  _27
REMARK    9  A    between atoms: _27  and  _28
REMARK   10  A    between atoms: _27  and  _30
REMARK   11  A    between atoms: _30  and  _31
REMARK   12  A    between atoms: _33  and  _35
REMARK   13  A    between atoms: _35  and  _36
REMARK   14  A    between atoms: _38  and  _40
REMARK   15  A    between atoms: _40  and  _41
REMARK   16  A    between atoms: _44  and  _46
REMARK   17  A    between atoms: _46  and  _47
REMARK   18  A    between atoms: _46  and  _49
REMARK   19  A    between atoms: _49  and  _50
REMARK   20  A    between atoms: _50  and  _51
REMARK   21  A    between atoms: _54  and  _56
REMARK   22  A    between atoms: _56  and  _57
REMARK   23  A    between atoms: _56  and  _59
REMARK   24  A    between atoms: _59  and  _60
REMARK   25  A    between atoms: _60  and  _61
REMARK   26  A    between atoms: _64  and  _66
REMARK   27  A    between atoms: _66  and  _67
REMARK   28  A    between atoms: _66  and  _69
REMARK   29  A    between atoms: _69  and  _70
REMARK   30  A    between atoms: _70  and  _71
REMARK   31  A    between atoms: _71  and  _72
REMARK   32  A    between atoms: _81  and  _83
REMARK   33  A    between atoms: _83  and  _84
REMARK   34  A    between atoms: _83  and  _86
REMARK   35  A    between atoms: _86  and  _87
REMARK   36  A    between atoms: _92  and  _94
REMARK   37  A    between atoms: _94  and  _95
REMARK   38  A    between atoms: _94  and  _97
REMARK   39  A    between atoms: _97  and  _98
REMARK   40  A    between atoms: _100  and  _102
REMARK   41  A    between atoms: _102  and  _103
REMARK   42  A    between atoms: _102  and  _105
REMARK   43  A    between atoms: _105  and  _106
REMARK   44  A    between atoms: _111  and  _113
REMARK   45  A    between atoms: _113  and  _114
REMARK   46  A    between atoms: _113  and  _116
REMARK   47  A    between atoms: _116  and  _117
REMARK   48  A    between atoms: _117  and  _118
REMARK   49  A    between atoms: _123  and  _125
REMARK   50  A    between atoms: _125  and  _126
REMARK   51  A    between atoms: _125  and  _128
REMARK   52  A    between atoms: _128  and  _129
REMARK   53  A    between atoms: _129  and  _130
REMARK   54  A    between atoms: _133  and  _135
REMARK   55  A    between atoms: _135  and  _136
REMARK   56  A    between atoms: _135  and  _138
REMARK   57  A    between atoms: _138  and  _139
REMARK   58  A    between atoms: _142  and  _144
REMARK   59  A    between atoms: _144  and  _145
REMARK   60  A    between atoms: _144  and  _147
REMARK   61  A    between atoms: _147  and  _148
REMARK   62  A    between atoms: _148  and  _149
REMARK   63  A    between atoms: _152  and  _154
REMARK   64  A    between atoms: _154  and  _155
REMARK   65  A    between atoms: _154  and  _157
REMARK   66  A    between atoms: _157  and  _158
REMARK   67  A    between atoms: _158  and  _160
REMARK   68  A    between atoms: _160  and  MN_338
REMARK   69  A    between atoms: _161  and  _163
REMARK   70  A    between atoms: _163  and  _164
REMARK   71  A    between atoms: _163  and  _166
REMARK   72  A    between atoms: _166  and  _167
REMARK   73  A    between atoms: _167  and  _168
REMARK   74  A    between atoms: _171  and  _173
REMARK   75  A    between atoms: _173  and  _174
REMARK   76  A    between atoms: _173  and  _176
REMARK   77  A    between atoms: _176  and  _177
REMARK   78  A    between atoms: _177  and  _178
REMARK   79  A    between atoms: _178  and  _180
REMARK   80  A    between atoms: _180  and  MN_338
REMARK   81  A    between atoms: _181  and  _183
REMARK   82  A    between atoms: _183  and  _184
REMARK   83  A    between atoms: _183  and  _186
REMARK   84  A    between atoms: _186  and  _187
REMARK   85  A    between atoms: _187  and  _189
REMARK   86  A    between atoms: _189  and  MN_338
REMARK   87  A    between atoms: _190  and  _192
REMARK   88  A    between atoms: _192  and  _193
REMARK   89  A    between atoms: _192  and  _195
REMARK   90  A    between atoms: _195  and  _196
REMARK   91  A    between atoms: _199  and  _201
REMARK   92  A    between atoms: _201  and  _202
REMARK   93  A    between atoms: _201  and  _204
REMARK   94  A    between atoms: _204  and  _205
REMARK   95  A    between atoms: _208  and  _210
REMARK   96  A    between atoms: _210  and  _211
REMARK   97  A    between atoms: _210  and  _213
REMARK   98  A    between atoms: _213  and  _214
REMARK   99  A    between atoms: _214  and  _215
REMARK  100  A    between atoms: _215  and  _216
REMARK  101  A    between atoms: _216  and  _217
REMARK  102  A    between atoms: _221  and  _223
REMARK  103  A    between atoms: _223  and  _224
REMARK  104  A    between atoms: _223  and  _226
REMARK  105  A    between atoms: _226  and  _227
REMARK  106  A    between atoms: _232  and  _234
REMARK  107  A    between atoms: _234  and  _235
REMARK  108  A    between atoms: _234  and  _237
REMARK  109  A    between atoms: _237  and  _238
REMARK  110  A    between atoms: _238  and  _239
REMARK  111  A    between atoms: _244  and  _246
REMARK  112  A    between atoms: _246  and  _247
REMARK  113  A    between atoms: _246  and  _249
REMARK  114  A    between atoms: _249  and  _250
REMARK  115  A    between atoms: _252  and  _254
REMARK  116  A    between atoms: _254  and  _255
REMARK  117  A    between atoms: _254  and  _257
REMARK  118  A    between atoms: _257  and  _258
REMARK  119  A    between atoms: _263  and  _265
REMARK  120  A    between atoms: _265  and  _266
REMARK  121  A    between atoms: _265  and  _268
REMARK  122  A    between atoms: _268  and  _269
REMARK  123  A    between atoms: _269  and  _270
REMARK  124  A    between atoms: _270  and  _271
REMARK  125  A    between atoms: _280  and  _282
REMARK  126  A    between atoms: _282  and  _283
REMARK  127  A    between atoms: _282  and  _285
REMARK  128  A    between atoms: _285  and  _286
REMARK  129  A    between atoms: _288  and  _290
REMARK  130  A    between atoms: _290  and  _291
REMARK  131  A    between atoms: _293  and  _295
REMARK  132  A    between atoms: _295  and  _296
REMARK  133  A    between atoms: _295  and  _298
REMARK  134  A    between atoms: _298  and  _299
REMARK  135  A    between atoms: _299  and  _300
REMARK  136  A    between atoms: _303  and  _305
REMARK  137  A    between atoms: _305  and  _306
REMARK  138  A    between atoms: _305  and  _308
REMARK  139  A    between atoms: _308  and  _309
REMARK  140  A    between atoms: _309  and  _310
REMARK  141  A    between atoms: _310  and  _311
REMARK  142  A    between atoms: _311  and  _312
REMARK  143  A    between atoms: _316  and  _318
REMARK  144  A    between atoms: _318  and  _319
REMARK  145  A    between atoms: _321  and  _323
REMARK  146  A    between atoms: _323  and  _324
REMARK  147  A    between atoms: _323  and  _326
REMARK  148  A    between atoms: _326  and  _327
REMARK  149  A    between atoms: _327  and  _328
REMARK  150  A    between atoms: _328  and  _329
REMARK                            x       y       z     vdW  Elec       q    Type
REMARK                         _______ _______ _______ _____ _____    ______ ____
ROOT
ATOM      1  C   SER A   1      35.802  76.001   9.730  0.00  0.00    +0.241 C 
ATOM      2  N   HIS A   2      36.388  74.813   9.586  0.00  0.00    -0.298 N 
ATOM      3  H   HIS A   2      36.964  74.447  10.371  0.00  0.00    +0.150 HD
ATOM      4  O   SER A   1      35.010  76.471   8.904  0.00  0.00    -0.274 OA
ENDROOT
BRANCH   1   5
ATOM      5  CA  SER A   1      36.108  76.751  11.023  0.00  0.00    +0.174 C 
BRANCH   5   6
ATOM      6  N   SER A   1      35.575  78.107  10.850  0.00  0.00    -0.236 NA
ATOM      7  H   SER A   1      34.734  78.225  10.250  0.00  0.00    +0.142 HD
ENDBRANCH   5   6
BRANCH   5   8
ATOM      8  CB  SER A   1      35.476  76.019  12.214  0.00  0.00    +0.163 C 
BRANCH   8   9
ATOM      9  OG  SER A   1      36.097  74.752  12.409  0.00  0.00    -0.380 OA
ATOM     10  H   SER A   1      35.677  74.295  13.180  0.00  0.00    +0.211 HD
ENDBRANCH   8   9
ENDBRANCH   5   8
ENDBRANCH   1   5
BRANCH   2  11
ATOM     11  CA  HIS A   2      36.260  73.996   8.373  0.00  0.00    +0.143 C 
BRANCH  11  12
ATOM     12  C   HIS A   2      37.325  74.548   7.406  0.00  0.00    +0.227 C 
ATOM     13  O   HIS A   2      37.708  73.885   6.427  0.00  0.00    -0.286 OA
ENDBRANCH  11  12
BRANCH  11  14
ATOM     14  CB  HIS A   2      34.866  74.078   7.717  0.00  0.00    +0.075 C 
BRANCH  14  15
ATOM     15  CG  HIS A   2      33.745  73.642   8.608  0.00  0.00    +0.082 A 
ATOM     16  CD2 HIS A   2      33.705  73.375   9.932  0.00  0.00    +0.115 A 
ATOM     17  NE2 HIS A   2      32.416  73.008  10.237  0.00  0.00    -0.221 NA
ATOM     18  CE1 HIS A   2      31.689  73.051   9.136  0.00  0.00    +0.199 A 
ATOM     19  ND1 HIS A   2      32.466  73.433   8.134  0.00  0.00    -0.227 NA
ENDBRANCH  14  15
ENDBRANCH  11  14
ENDBRANCH   2  11
TORSDOF 8
REMARK  Name = ../refined-set-2016/1pdz/1pdz_pocket.pdb
REMARK  150 active torsions:
REMARK  status: ('A' for Active; 'I' for Inactive)
REMARK    1  A    between atoms: _1  and  _3
REMARK    2  A    between atoms: _3  and  _4
REMARK    3  A    between atoms: _3  and  _6
REMARK    4  A    between atoms: _6  and  _7
REMARK    5  A    between atoms: _7  and  _8
REMARK    6  A    between atoms: _8  and  _9
REMARK    7  A    between atoms: _19  and  _20
REMARK    8  A    between atoms: _25  and  _27
REMARK    9  A    between atoms: _27  and  _28
REMARK   10  A    between atoms: _27  and  _30
REMARK   11  A    between atoms: _30  and  _31
REMARK   12  A    between atoms: _33  and  _35
REMARK   13  A    between atoms: _35  and  _36
REMARK   14  A    between atoms: _38  and  _40
REMARK   15  A    between atoms: _40  and  _41
REMARK   16  A    between atoms: _44  and  _46
REMARK   17  A    between atoms: _46  and  _47
REMARK   18  A    between atoms: _46  and  _49
REMARK   19  A    between atoms: _49  and  _50
REMARK   20  A    between atoms: _50  and  _51
REMARK   21  A    between atoms: _54  and  _56
REMARK   22  A    between atoms: _56  and  _57
REMARK   23  A    between atoms: _56  and  _59
REMARK   24  A    between atoms: _59  and  _60
REMARK   25  A    between atoms: _60  and  _61
REMARK   26  A    between atoms: _64  and  _66
REMARK   27  A    between atoms: _66  and  _67
REMARK   28  A    between atoms: _66  and  _69
REMARK   29  A    between atoms: _69  and  _70
REMARK   30  A    between atoms: _70  and  _71
REMARK   31  A    between atoms: _71  and  _72
REMARK   32  A    between atoms: _81  and  _83
REMARK   33  A    between atoms: _83  and  _84
REMARK   34  A    between atoms: _83  and  _86
REMARK   35  A    between atoms: _86  and  _87
REMARK   36  A    between atoms: _92  and  _94
REMARK   37  A    between atoms: _94  and  _95
REMARK   38  A    between atoms: _94  and  _97
REMARK   39  A    between atoms: _97  and  _98
REMARK   40  A    between atoms: _100  and  _102
REMARK   41  A    between atoms: _102  and  _103
REMARK   42  A    between atoms: _102  and  _105
REMARK   43  A    between atoms: _105  and  _106
REMARK   44  A    between atoms: _111  and  _113
REMARK   45  A    between atoms: _113  and  _114
REMARK   46  A    between atoms: _113  and  _116
REMARK   47  A    between atoms: _116  and  _117
REMARK   48  A    between atoms: _117  and  _118
REMARK   49  A    between atoms: _123  and  _125
REMARK   50  A    between atoms: _125  and  _126
REMARK   51  A    between atoms: _125  and  _128
REMARK   52  A    between atoms: _128  and  _129
REMARK   53  A    between atoms: _129  and  _130
REMARK   54  A    between atoms: _133  and  _135
REMARK   55  A    between atoms: _135  and  _136
REMARK   56  A    between atoms: _135  and  _138
REMARK   57  A    between atoms: _138  and  _139
REMARK   58  A    between atoms: _142  and  _144
REMARK   59  A    between atoms: _144  and  _145
REMARK   60  A    between atoms: _144  and  _147
REMARK   61  A    between atoms: _147  and  _148
REMARK   62  A    between atoms: _148  and  _149
REMARK   63  A    between atoms: _152  and  _154
REMARK   64  A    between atoms: _154  and  _155
REMARK   65  A    between atoms: _154  and  _157
REMARK   66  A    between atoms: _157  and  _158
REMARK   67  A    between atoms: _158  and  _160
REMARK   68  A    between atoms: _160  and  MN_338
REMARK   69  A    between atoms: _161  and  _163
REMARK   70  A    between atoms: _163  and  _164
REMARK   71  A    between atoms: _163  and  _166
REMARK   72  A    between atoms: _166  and  _167
REMARK   73  A    between atoms: _167  and  _168
REMARK   74  A    between atoms: _171  and  _173
REMARK   75  A    between atoms: _173  and  _174
REMARK   76  A    between atoms: _173  and  _176
REMARK   77  A    between atoms: _176  and  _177
REMARK   78  A    between atoms: _177  and  _178
REMARK   79  A    between atoms: _178  and  _180
REMARK   80  A    between atoms: _180  and  MN_338
REMARK   81  A    between atoms: _181  and  _183
REMARK   82  A    between atoms: _183  and  _184
REMARK   83  A    between atoms: _183  and  _186
REMARK   84  A    between atoms: _186  and  _187
REMARK   85  A    between atoms: _187  and  _189
REMARK   86  A    between atoms: _189  and  MN_338
REMARK   87  A    between atoms: _190  and  _192
REMARK   88  A    between atoms: _192  and  _193
REMARK   89  A    between atoms: _192  and  _195
REMARK   90  A    between atoms: _195  and  _196
REMARK   91  A    between atoms: _199  and  _201
REMARK   92  A    between atoms: _201  and  _202
REMARK   93  A    between atoms: _201  and  _204
REMARK   94  A    between atoms: _204  and  _205
REMARK   95  A    between atoms: _208  and  _210
REMARK   96  A    between atoms: _210  and  _211
REMARK   97  A    between atoms: _210  and  _213
REMARK   98  A    between atoms: _213  and  _214
REMARK   99  A    between atoms: _214  and  _215
REMARK  100  A    between atoms: _215  and  _216
REMARK  101  A    between atoms: _216  and  _217
REMARK  102  A    between atoms: _221  and  _223
REMARK  103  A    between atoms: _223  and  _224
REMARK  104  A    between atoms: _223  and  _226
REMARK  105  A    between atoms: _226  and  _227
REMARK  106  A    between atoms: _232  and  _234
REMARK  107  A    between atoms: _234  and  _235
REMARK  108  A    between atoms: _234  and  _237
REMARK  109  A    between atoms: _237  and  _238
REMARK  110  A    between atoms: _238  and  _239
REMARK  111  A    between atoms: _244  and  _246
REMARK  112  A    between atoms: _246  and  _247
REMARK  113  A    between atoms: _246  and  _249
REMARK  114  A    between atoms: _249  and  _250
REMARK  115  A    between atoms: _252  and  _254
REMARK  116  A    between atoms: _254  and  _255
REMARK  117  A    between atoms: _254  and  _257
REMARK  118  A    between atoms: _257  and  _258
REMARK  119  A    between atoms: _263  and  _265
REMARK  120  A    between atoms: _265  and  _266
REMARK  121  A    between atoms: _265  and  _268
REMARK  122  A    between atoms: _268  and  _269
REMARK  123  A    between atoms: _269  and  _270
REMARK  124  A    between atoms: _270  and  _271
REMARK  125  A    between atoms: _280  and  _282
REMARK  126  A    between atoms: _282  and  _283
REMARK  127  A    between atoms: _282  and  _285
REMARK  128  A    between atoms: _285  and  _286
REMARK  129  A    between atoms: _288  and  _290
REMARK  130  A    between atoms: _290  and  _291
REMARK  131  A    between atoms: _293  and  _295
REMARK  132  A    between atoms: _295  and  _296
REMARK  133  A    between atoms: _295  and  _298
REMARK  134  A    between atoms: _298  and  _299
REMARK  135  A    between atoms: _299  and  _300
REMARK  136  A    between atoms: _303  and  _305
REMARK  137  A    between atoms: _305  and  _306
REMARK  138  A    between atoms: _305  and  _308
REMARK  139  A    between atoms: _308  and  _309
REMARK  140  A    between atoms: _309  and  _310
REMARK  141  A    between atoms: _310  and  _311
REMARK  142  A    between atoms: _311  and  _312
REMARK  143  A    between atoms: _316  and  _318
REMARK  144  A    between atoms: _318  and  _319
REMARK  145  A    between atoms: _321  and  _323
REMARK  146  A    between atoms: _323  and  _324
REMARK  147  A    between atoms: _323  and  _326
REMARK  148  A    between atoms: _326  and  _327
REMARK  149  A    between atoms: _327  and  _328
REMARK  150  A    between atoms: _328  and  _329
REMARK                            x       y       z     vdW  Elec       q    Type
REMARK                         _______ _______ _______ _____ _____    ______ ____
ROOT
ATOM      1  C   GLN A   1      30.973  79.056   7.952  0.00  0.00    +0.238 C 
ATOM      2  N   GLU A   2      29.706  79.097   7.547  0.00  0.00    -0.298 N 
ATOM      3  H   GLU A   2      28.987  79.558   8.140  0.00  0.00    +0.150 HD
ATOM      4  O   GLN A   1      31.842  78.495   7.298  0.00  0.00    -0.274 OA
ENDROOT
BRANCH   1   5
ATOM      5  CA  GLN A   1      31.338  79.657   9.299  0.00  0.00    +0.145 C 
BRANCH   5   6
ATOM      6  N   GLN A   1      30.926  81.003   9.682  0.00  0.00    -0.238 NA
ATOM      7  H   GLN A   1      30.317  81.133  10.515  0.00  0.00    +0.142 HD
ENDBRANCH   5   6
BRANCH   5   8
ATOM      8  CB  GLN A   1      31.011  78.652  10.393  0.00  0.00    +0.036 C 
BRANCH   8   9
ATOM      9  CG  GLN A   1      32.075  78.571  11.473  0.00  0.00    +0.087 C 
BRANCH   9  10
ATOM     10  CD  GLN A   1      32.074  77.255  12.228  0.00  0.00    +0.219 C 
ATOM     11  NE2 GLN A   1      32.872  77.187  13.278  0.00  0.00    -0.329 N 
ATOM     12 HE21 GLN A   1      32.921  76.312  13.838  0.00  0.00    +0.145 HD
ATOM     13 HE22 GLN A   1      33.452  78.008  13.544  0.00  0.00    +0.145 HD
ATOM     14  OE1 GLN A   1      31.369  76.311  11.873  0.00  0.00    -0.275 OA
ENDBRANCH   9  10
ENDBRANCH   8   9
ENDBRANCH   5   8
ENDBRANCH   1   5
BRANCH   2  15
ATOM     15  CA  GLU A   2      29.318  78.492   6.262  0.00  0.00    +0.137 C 
BRANCH  15  16
ATOM     16  C   GLU A   2      28.416  79.359   5.398  0.00  0.00    +0.227 C 
ATOM     17  O   GLU A   2      27.514  80.012   5.909  0.00  0.00    -0.286 OA
ENDBRANCH  15  16
BRANCH  15  18
ATOM     18  CB  GLU A   2      28.569  77.176   6.486  0.00  0.00    +0.039 C 
BRANCH  18  19
ATOM     19  CG  GLU A   2      29.320  76.101   7.223  0.00  0.00    +0.116 C 
BRANCH  19  20
ATOM     20  CD  GLU A   2      28.400  74.990   7.666  0.00  0.00    +0.365 C 
ATOM     21  OE2 GLU A   2      28.458  74.602   8.840  0.00  0.00    -0.246 OA
ATOM     22  OE1 GLU A   2      27.607  74.494   6.852  0.00  0.00    -0.246 OA
ENDBRANCH  19  20
ENDBRANCH  18  19
ENDBRANCH  15  18
ENDBRANCH   2  15
TORSDOF 10
REMARK  Name = ../refined-set-2016/1pdz/1pdz_pocket.pdb
REMARK  150 active torsions:
REMARK  status: ('A' for Active; 'I' for Inactive)
REMARK    1  A    between atoms: _1  and  _3
REMARK    2  A    between atoms: _3  and  _4
REMARK    3  A    between atoms: _3  and  _6
REMARK    4  A    between atoms: _6  and  _7
REMARK    5  A    between atoms: _7  and  _8
REMARK    6  A    between atoms: _8  and  _9
REMARK    7  A    between atoms: _19  and  _20
REMARK    8  A    between atoms: _25  and  _27
REMARK    9  A    between atoms: _27  and  _28
REMARK   10  A    between atoms: _27  and  _30
REMARK   11  A    between atoms: _30  and  _31
REMARK   12  A    between atoms: _33  and  _35
REMARK   13  A    between atoms: _35  and  _36
REMARK   14  A    between atoms: _38  and  _40
REMARK   15  A    between atoms: _40  and  _41
REMARK   16  A    between atoms: _44  and  _46
REMARK   17  A    between atoms: _46  and  _47
REMARK   18  A    between atoms: _46  and  _49
REMARK   19  A    between atoms: _49  and  _50
REMARK   20  A    between atoms: _50  and  _51
REMARK   21  A    between atoms: _54  and  _56
REMARK   22  A    between atoms: _56  and  _57
REMARK   23  A    between atoms: _56  and  _59
REMARK   24  A    between atoms: _59  and  _60
REMARK   25  A    between atoms: _60  and  _61
REMARK   26  A    between atoms: _64  and  _66
REMARK   27  A    between atoms: _66  and  _67
REMARK   28  A    between atoms: _66  and  _69
REMARK   29  A    between atoms: _69  and  _70
REMARK   30  A    between atoms: _70  and  _71
REMARK   31  A    between atoms: _71  and  _72
REMARK   32  A    between atoms: _81  and  _83
REMARK   33  A    between atoms: _83  and  _84
REMARK   34  A    between atoms: _83  and  _86
REMARK   35  A    between atoms: _86  and  _87
REMARK   36  A    between atoms: _92  and  _94
REMARK   37  A    between atoms: _94  and  _95
REMARK   38  A    between atoms: _94  and  _97
REMARK   39  A    between atoms: _97  and  _98
REMARK   40  A    between atoms: _100  and  _102
REMARK   41  A    between atoms: _102  and  _103
REMARK   42  A    between atoms: _102  and  _105
REMARK   43  A    between atoms: _105  and  _106
REMARK   44  A    between atoms: _111  and  _113
REMARK   45  A    between atoms: _113  and  _114
REMARK   46  A    between atoms: _113  and  _116
REMARK   47  A    between atoms: _116  and  _117
REMARK   48  A    between atoms: _117  and  _118
REMARK   49  A    between atoms: _123  and  _125
REMARK   50  A    between atoms: _125  and  _126
REMARK   51  A    between atoms: _125  and  _128
REMARK   52  A    between atoms: _128  and  _129
REMARK   53  A    between atoms: _129  and  _130
REMARK   54  A    between atoms: _133  and  _135
REMARK   55  A    between atoms: _135  and  _136
REMARK   56  A    between atoms: _135  and  _138
REMARK   57  A    between atoms: _138  and  _139
REMARK   58  A    between atoms: _142  and  _144
REMARK   59  A    between atoms: _144  and  _145
REMARK   60  A    between atoms: _144  and  _147
REMARK   61  A    between atoms: _147  and  _148
REMARK   62  A    between atoms: _148  and  _149
REMARK   63  A    between atoms: _152  and  _154
REMARK   64  A    between atoms: _154  and  _155
REMARK   65  A    between atoms: _154  and  _157
REMARK   66  A    between atoms: _157  and  _158
REMARK   67  A    between atoms: _158  and  _160
REMARK   68  A    between atoms: _160  and  MN_338
REMARK   69  A    between atoms: _161  and  _163
REMARK   70  A    between atoms: _163  and  _164
REMARK   71  A    between atoms: _163  and  _166
REMARK   72  A    between atoms: _166  and  _167
REMARK   73  A    between atoms: _167  and  _168
REMARK   74  A    between atoms: _171  and  _173
REMARK   75  A    between atoms: _173  and  _174
REMARK   76  A    between atoms: _173  and  _176
REMARK   77  A    between atoms: _176  and  _177
REMARK   78  A    between atoms: _177  and  _178
REMARK   79  A    between atoms: _178  and  _180
REMARK   80  A    between atoms: _180  and  MN_338
REMARK   81  A    between atoms: _181  and  _183
REMARK   82  A    between atoms: _183  and  _184
REMARK   83  A    between atoms: _183  and  _186
REMARK   84  A    between atoms: _186  and  _187
REMARK   85  A    between atoms: _187  and  _189
REMARK   86  A    between atoms: _189  and  MN_338
REMARK   87  A    between atoms: _190  and  _192
REMARK   88  A    between atoms: _192  and  _193
REMARK   89  A    between atoms: _192  and  _195
REMARK   90  A    between atoms: _195  and  _196
REMARK   91  A    between atoms: _199  and  _201
REMARK   92  A    between atoms: _201  and  _202
REMARK   93  A    between atoms: _201  and  _204
REMARK   94  A    between atoms: _204  and  _205
REMARK   95  A    between atoms: _208  and  _210
REMARK   96  A    between atoms: _210  and  _211
REMARK   97  A    between atoms: _210  and  _213
REMARK   98  A    between atoms: _213  and  _214
REMARK   99  A    between atoms: _214  and  _215
REMARK  100  A    between atoms: _215  and  _216
REMARK  101  A    between atoms: _216  and  _217
REMARK  102  A    between atoms: _221  and  _223
REMARK  103  A    between atoms: _223  and  _224
REMARK  104  A    between atoms: _223  and  _226
REMARK  105  A    between atoms: _226  and  _227
REMARK  106  A    between atoms: _232  and  _234
REMARK  107  A    between atoms: _234  and  _235
REMARK  108  A    between atoms: _234  and  _237
REMARK  109  A    between atoms: _237  and  _238
REMARK  110  A    between atoms: _238  and  _239
REMARK  111  A    between atoms: _244  and  _246
REMARK  112  A    between atoms: _246  and  _247
REMARK  113  A    between atoms: _246  and  _249
REMARK  114  A    between atoms: _249  and  _250
REMARK  115  A    between atoms: _252  and  _254
REMARK  116  A    between atoms: _254  and  _255
REMARK  117  A    between atoms: _254  and  _257
REMARK  118  A    between atoms: _257  and  _258
REMARK  119  A    between atoms: _263  and  _265
REMARK  120  A    between atoms: _265  and  _266
REMARK  121  A    between atoms: _265  and  _268
REMARK  122  A    between atoms: _268  and  _269
REMARK  123  A    between atoms: _269  and  _270
REMARK  124  A    between atoms: _270  and  _271
REMARK  125  A    between atoms: _280  and  _282
REMARK  126  A    between atoms: _282  and  _283
REMARK  127  A    between atoms: _282  and  _285
REMARK  128  A    between atoms: _285  and  _286
REMARK  129  A    between atoms: _288  and  _290
REMARK  130  A    between atoms: _290  and  _291
REMARK  131  A    between atoms: _293  and  _295
REMARK  132  A    between atoms: _295  and  _296
REMARK  133  A    between atoms: _295  and  _298
REMARK  134  A    between atoms: _298  and  _299
REMARK  135  A    between atoms: _299  and  _300
REMARK  136  A    between atoms: _303  and  _305
REMARK  137  A    between atoms: _305  and  _306
REMARK  138  A    between atoms: _305  and  _308
REMARK  139  A    between atoms: _308  and  _309
REMARK  140  A    between atoms: _309  and  _310
REMARK  141  A    between atoms: _310  and  _311
REMARK  142  A    between atoms: _311  and  _312
REMARK  143  A    between atoms: _316  and  _318
REMARK  144  A    between atoms: _318  and  _319
REMARK  145  A    between atoms: _321  and  _323
REMARK  146  A    between atoms: _323  and  _324
REMARK  147  A    between atoms: _323  and  _326
REMARK  148  A    between atoms: _326  and  _327
REMARK  149  A    between atoms: _327  and  _328
REMARK  150  A    between atoms: _328  and  _329
REMARK                            x       y       z     vdW  Elec       q    Type
REMARK                         _______ _______ _______ _____ _____    ______ ____
ROOT
ATOM      1  C   ASP A   1      35.610  69.471   4.600  0.00  0.00    +0.239 C 
ATOM      2  O   ASP A   1      35.391  68.287   4.390  0.00  0.00    -0.274 OA
ATOM      3  N   GLU A   2      34.791  70.445   4.200  0.00  0.00    -0.298 N 
ATOM      4  H   GLU A   2      35.060  71.434   4.378  0.00  0.00    +0.150 HD
ENDROOT
BRANCH   1   5
ATOM      5  CA  ASP A   1      36.886  69.884   5.329  0.00  0.00    +0.156 C 
BRANCH   5   6
ATOM      6  N   ASP A   1      37.497  71.137   4.896  0.00  0.00    -0.238 NA
ATOM      7  H   ASP A   1      37.818  71.804   5.626  0.00  0.00    +0.142 HD
ENDBRANCH   5   6
BRANCH   5   8
ATOM      8  CB  ASP A   1      36.611  69.929   6.831  0.00  0.00    +0.140 C 
BRANCH   8   9
ATOM      9  CG  ASP A   1      37.876  70.127   7.660  0.00  0.00    +0.367 C 
ATOM     10  OD2 ASP A   1      37.782  70.665   8.787  0.00  0.00    -0.246 OA
ATOM     11  OD1 ASP A   1      38.966  69.743   7.200  0.00  0.00    -0.246 OA
ENDBRANCH   8   9
ENDBRANCH   5   8
ENDBRANCH   1   5
BRANCH   3  12
ATOM     12  CA  GLU A   2      33.530  70.168   3.521  0.00  0.00    +0.137 C 
BRANCH  12  13
ATOM     13  C   GLU A   2      33.500  70.335   2.024  0.00  0.00    +0.227 C 
ATOM     14  O   GLU A   2      32.424  70.331   1.430  0.00  0.00    -0.286 OA
ENDBRANCH  12  13
BRANCH  12  15
ATOM     15  CB  GLU A   2      32.378  70.967   4.132  0.00  0.00    +0.039 C 
BRANCH  15  16
ATOM     16  CG  GLU A   2      32.228  70.835   5.649  0.00  0.00    +0.116 C 
BRANCH  16  17
ATOM     17  CD  GLU A   2      30.809  71.130   6.166  0.00  0.00    +0.365 C 
ATOM     18  OE2 GLU A   2      30.574  70.859   7.365  0.00  0.00    -0.246 OA
ATOM     19  OE1 GLU A   2      29.925  71.594   5.398  0.00  0.00    -0.246 OA
ENDBRANCH  16  17
ENDBRANCH  15  16
ENDBRANCH  12  15
ENDBRANCH   3  12
TORSDOF 9
REMARK  Name = ../refined-set-2016/1pdz/1pdz_pocket.pdb
REMARK  150 active torsions:
REMARK  status: ('A' for Active; 'I' for Inactive)
REMARK    1  A    between atoms: _1  and  _3
REMARK    2  A    between atoms: _3  and  _4
REMARK    3  A    between atoms: _3  and  _6
REMARK    4  A    between atoms: _6  and  _7
REMARK    5  A    between atoms: _7  and  _8
REMARK    6  A    between atoms: _8  and  _9
REMARK    7  A    between atoms: _19  and  _20
REMARK    8  A    between atoms: _25  and  _27
REMARK    9  A    between atoms: _27  and  _28
REMARK   10  A    between atoms: _27  and  _30
REMARK   11  A    between atoms: _30  and  _31
REMARK   12  A    between atoms: _33  and  _35
REMARK   13  A    between atoms: _35  and  _36
REMARK   14  A    between atoms: _38  and  _40
REMARK   15  A    between atoms: _40  and  _41
REMARK   16  A    between atoms: _44  and  _46
REMARK   17  A    between atoms: _46  and  _47
REMARK   18  A    between atoms: _46  and  _49
REMARK   19  A    between atoms: _49  and  _50
REMARK   20  A    between atoms: _50  and  _51
REMARK   21  A    between atoms: _54  and  _56
REMARK   22  A    between atoms: _56  and  _57
REMARK   23  A    between atoms: _56  and  _59
REMARK   24  A    between atoms: _59  and  _60
REMARK   25  A    between atoms: _60  and  _61
REMARK   26  A    between atoms: _64  and  _66
REMARK   27  A    between atoms: _66  and  _67
REMARK   28  A    between atoms: _66  and  _69
REMARK   29  A    between atoms: _69  and  _70
REMARK   30  A    between atoms: _70  and  _71
REMARK   31  A    between atoms: _71  and  _72
REMARK   32  A    between atoms: _81  and  _83
REMARK   33  A    between atoms: _83  and  _84
REMARK   34  A    between atoms: _83  and  _86
REMARK   35  A    between atoms: _86  and  _87
REMARK   36  A    between atoms: _92  and  _94
REMARK   37  A    between atoms: _94  and  _95
REMARK   38  A    between atoms: _94  and  _97
REMARK   39  A    between atoms: _97  and  _98
REMARK   40  A    between atoms: _100  and  _102
REMARK   41  A    between atoms: _102  and  _103
REMARK   42  A    between atoms: _102  and  _105
REMARK   43  A    between atoms: _105  and  _106
REMARK   44  A    between atoms: _111  and  _113
REMARK   45  A    between atoms: _113  and  _114
REMARK   46  A    between atoms: _113  and  _116
REMARK   47  A    between atoms: _116  and  _117
REMARK   48  A    between atoms: _117  and  _118
REMARK   49  A    between atoms: _123  and  _125
REMARK   50  A    between atoms: _125  and  _126
REMARK   51  A    between atoms: _125  and  _128
REMARK   52  A    between atoms: _128  and  _129
REMARK   53  A    between atoms: _129  and  _130
REMARK   54  A    between atoms: _133  and  _135
REMARK   55  A    between atoms: _135  and  _136
REMARK   56  A    between atoms: _135  and  _138
REMARK   57  A    between atoms: _138  and  _139
REMARK   58  A    between atoms: _142  and  _144
REMARK   59  A    between atoms: _144  and  _145
REMARK   60  A    between atoms: _144  and  _147
REMARK   61  A    between atoms: _147  and  _148
REMARK   62  A    between atoms: _148  and  _149
REMARK   63  A    between atoms: _152  and  _154
REMARK   64  A    between atoms: _154  and  _155
REMARK   65  A    between atoms: _154  and  _157
REMARK   66  A    between atoms: _157  and  _158
REMARK   67  A    between atoms: _158  and  _160
REMARK   68  A    between atoms: _160  and  MN_338
REMARK   69  A    between atoms: _161  and  _163
REMARK   70  A    between atoms: _163  and  _164
REMARK   71  A    between atoms: _163  and  _166
REMARK   72  A    between atoms: _166  and  _167
REMARK   73  A    between atoms: _167  and  _168
REMARK   74  A    between atoms: _171  and  _173
REMARK   75  A    between atoms: _173  and  _174
REMARK   76  A    between atoms: _173  and  _176
REMARK   77  A    between atoms: _176  and  _177
REMARK   78  A    between atoms: _177  and  _178
REMARK   79  A    between atoms: _178  and  _180
REMARK   80  A    between atoms: _180  and  MN_338
REMARK   81  A    between atoms: _181  and  _183
REMARK   82  A    between atoms: _183  and  _184
REMARK   83  A    between atoms: _183  and  _186
REMARK   84  A    between atoms: _186  and  _187
REMARK   85  A    between atoms: _187  and  _189
REMARK   86  A    between atoms: _189  and  MN_338
REMARK   87  A    between atoms: _190  and  _192
REMARK   88  A    between atoms: _192  and  _193
REMARK   89  A    between atoms: _192  and  _195
REMARK   90  A    between atoms: _195  and  _196
REMARK   91  A    between atoms: _199  and  _201
REMARK   92  A    between atoms: _201  and  _202
REMARK   93  A    between atoms: _201  and  _204
REMARK   94  A    between atoms: _204  and  _205
REMARK   95  A    between atoms: _208  and  _210
REMARK   96  A    between atoms: _210  and  _211
REMARK   97  A    between atoms: _210  and  _213
REMARK   98  A    between atoms: _213  and  _214
REMARK   99  A    between atoms: _214  and  _215
REMARK  100  A    between atoms: _215  and  _216
REMARK  101  A    between atoms: _216  and  _217
REMARK  102  A    between atoms: _221  and  _223
REMARK  103  A    between atoms: _223  and  _224
REMARK  104  A    between atoms: _223  and  _226
REMARK  105  A    between atoms: _226  and  _227
REMARK  106  A    between atoms: _232  and  _234
REMARK  107  A    between atoms: _234  and  _235
REMARK  108  A    between atoms: _234  and  _237
REMARK  109  A    between atoms: _237  and  _238
REMARK  110  A    between atoms: _238  and  _239
REMARK  111  A    between atoms: _244  and  _246
REMARK  112  A    between atoms: _246  and  _247
REMARK  113  A    between atoms: _246  and  _249
REMARK  114  A    between atoms: _249  and  _250
REMARK  115  A    between atoms: _252  and  _254
REMARK  116  A    between atoms: _254  and  _255
REMARK  117  A    between atoms: _254  and  _257
REMARK  118  A    between atoms: _257  and  _258
REMARK  119  A    between atoms: _263  and  _265
REMARK  120  A    between atoms: _265  and  _266
REMARK  121  A    between atoms: _265  and  _268
REMARK  122  A    between atoms: _268  and  _269
REMARK  123  A    between atoms: _269  and  _270
REMARK  124  A    between atoms: _270  and  _271
REMARK  125  A    between atoms: _280  and  _282
REMARK  126  A    between atoms: _282  and  _283
REMARK  127  A    between atoms: _282  and  _285
REMARK  128  A    between atoms: _285  and  _286
REMARK  129  A    between atoms: _288  and  _290
REMARK  130  A    between atoms: _290  and  _291
REMARK  131  A    between atoms: _293  and  _295
REMARK  132  A    between atoms: _295  and  _296
REMARK  133  A    between atoms: _295  and  _298
REMARK  134  A    between atoms: _298  and  _299
REMARK  135  A    between atoms: _299  and  _300
REMARK  136  A    between atoms: _303  and  _305
REMARK  137  A    between atoms: _305  and  _306
REMARK  138  A    between atoms: _305  and  _308
REMARK  139  A    between atoms: _308  and  _309
REMARK  140  A    between atoms: _309  and  _310
REMARK  141  A    between atoms: _310  and  _311
REMARK  142  A    between atoms: _311  and  _312
REMARK  143  A    between atoms: _316  and  _318
REMARK  144  A    between atoms: _318  and  _319
REMARK  145  A    between atoms: _321  and  _323
REMARK  146  A    between atoms: _323  and  _324
REMARK  147  A    between atoms: _323  and  _326
REMARK  148  A    between atoms: _326  and  _327
REMARK  149  A    between atoms: _327  and  _328
REMARK  150  A    between atoms: _328  and  _329
REMARK                            x       y       z     vdW  Elec       q    Type
REMARK                         _______ _______ _______ _____ _____    ______ ____
ROOT
ATOM      1 MN   UNK A   1      26.634  74.962  12.870  0.00  0.00    +0.000 Mn
ATOM      2  O   UNK A   1      28.502  74.232  13.907  0.00  0.00    +0.000 OA
ATOM      3  O   UNK A   1      26.917  76.803  13.897  0.00  0.00    +0.000 OA
ATOM      4  O   UNK A   1      26.513  73.398  11.547  0.00  0.00    +0.000 OA
ENDROOT
BRANCH   1   5
ATOM      5  O   UNK A   1      24.475  74.691  11.862  0.00  0.00    +0.000 OA
BRANCH   5   6
ATOM      6  C   UNK A   1      23.664  75.366  11.204  0.00  0.00    +0.000 C 
ATOM      7  O   UNK A   1      23.391  75.109  10.009  0.00  0.00    +0.000 OA
BRANCH   6   8
ATOM      8  C   UNK A   1      22.988  76.549  11.900  0.00  0.00    +0.000 C 
BRANCH   8   9
ATOM      9  C   UNK A   1      22.634  77.653  10.937  0.00  0.00    +0.000 C 
BRANCH   9  10
ATOM     10  C   UNK A   1      21.931  78.879  11.519  0.00  0.00    +0.000 C 
BRANCH  10  11
ATOM     11  C   UNK A   1      22.793  79.537  12.574  0.00  0.00    +0.000 C 
ATOM     12  O   UNK A   1      23.747  80.227  12.262  0.00  0.00    +0.000 OA
ENDBRANCH  10  11
BRANCH  10  13
ATOM     13  N   UNK A   1      21.678  79.802  10.419  0.00  0.00    +0.000 NA
ATOM     14  H   UNK A   1      22.445  79.976   9.738  0.00  0.00    +0.000 HD
ENDBRANCH  10  13
ENDBRANCH   9  10
ENDBRANCH   8   9
ENDBRANCH   6   8
ENDBRANCH   5   6
ENDBRANCH   1   5
BRANCH   1  15
ATOM     15  O   UNK A   1      26.054  73.380  14.397  0.00  0.00    +0.000 OA
BRANCH  15  16
ATOM     16  C   UNK A   1      24.891  73.118  14.728  0.00  0.00    +0.000 C 
ATOM     17  O   UNK A   1      24.521  71.953  14.941  0.00  0.00    +0.000 OA
BRANCH  16  18
ATOM     18  C   UNK A   1      23.890  74.251  14.884  0.00  0.00    +0.000 C 
BRANCH  18  19
ATOM     19  C   UNK A   1      22.827  73.946  15.930  0.00  0.00    +0.000 C 
BRANCH  19  20
ATOM     20  C   UNK A   1      23.449  73.798  17.310  0.00  0.00    +0.000 C 
ATOM     21  O   UNK A   1      23.124  72.857  18.020  0.00  0.00    +0.000 OA
ATOM     22  N   ASP A   2      24.332  74.720  17.689  0.00  0.00    +0.000 N 
ATOM     23  H   ASP A   2      24.591  75.475  17.022  0.00  0.00    +0.000 HD
BRANCH  22  24
ATOM     24  CA  ASP A   2      24.951  74.702  19.022  0.00  0.00    +0.000 C 
BRANCH  24  25
ATOM     25  C   ASP A   2      23.915  75.007  20.107  0.00  0.00    +0.000 C 
ATOM     26  O   ASP A   2      24.141  74.724  21.283  0.00  0.00    +0.000 OA
ENDBRANCH  24  25
BRANCH  24  27
ATOM     27  CB  ASP A   2      26.060  75.756  19.136  0.00  0.00    +0.000 C 
BRANCH  27  28
ATOM     28  CG  ASP A   2      27.239  75.466  18.244  0.00  0.00    +0.000 C 
ATOM     29  OD2 ASP A   2      27.662  74.296  18.196  0.00  0.00    +0.000 OA
ATOM     30  OD1 ASP A   2      27.753  76.406  17.596  0.00  0.00    +0.000 OA
ENDBRANCH  27  28
ENDBRANCH  24  27
ENDBRANCH  22  24
ENDBRANCH  19  20
BRANCH  19  31
ATOM     31  N   UNK A   1      21.828  75.003  15.981  0.00  0.00    +0.000 NA
ATOM     32  H   UNK A   1      22.133  75.991  16.090  0.00  0.00    +0.000 HD
ENDBRANCH  19  31
ENDBRANCH  18  19
ENDBRANCH  16  18
ENDBRANCH  15  16
ENDBRANCH   1  15
BRANCH   1  33
ATOM     33  O   UNK A   1      26.461  75.857  10.661  0.00  0.00    +0.000 OA
BRANCH  33  34
ATOM     34  C   UNK A   1      26.481  77.103  10.647  0.00  0.00    +0.000 C 
ATOM     35  O   UNK A   1      26.742  77.782  11.669  0.00  0.00    +0.000 OA
BRANCH  34  36
ATOM     36  C   UNK A   1      26.185  77.796   9.315  0.00  0.00    +0.000 C 
BRANCH  36  37
ATOM     37  C   UNK A   1      25.584  79.187   9.486  0.00  0.00    +0.000 C 
BRANCH  37  38
ATOM     38  N   UNK A   1      25.339  79.808   8.209  0.00  0.00    +0.000 NA
ATOM     39  H   UNK A   1      26.140  80.269   7.733  0.00  0.00    +0.000 HD
ENDBRANCH  37  38
BRANCH  37  40
ATOM     40  C   UNK A   1      26.634  80.116  10.007  0.00  0.00    +0.000 C 
ATOM     41  O   UNK A   1      27.789  80.056   9.599  0.00  0.00    +0.000 OA
ENDBRANCH  37  40
ENDBRANCH  36  37
ENDBRANCH  34  36
ENDBRANCH  33  34
ENDBRANCH   1  33
TORSDOF 23
REMARK  Name = ../refined-set-2016/1pdz/1pdz_pocket.pdb
REMARK  150 active torsions:
REMARK  status: ('A' for Active; 'I' for Inactive)
REMARK    1  A    between atoms: _1  and  _3
REMARK    2  A    between atoms: _3  and  _4
REMARK    3  A    between atoms: _3  and  _6
REMARK    4  A    between atoms: _6  and  _7
REMARK    5  A    between atoms: _7  and  _8
REMARK    6  A    between atoms: _8  and  _9
REMARK    7  A    between atoms: _19  and  _20
REMARK    8  A    between atoms: _25  and  _27
REMARK    9  A    between atoms: _27  and  _28
REMARK   10  A    between atoms: _27  and  _30
REMARK   11  A    between atoms: _30  and  _31
REMARK   12  A    between atoms: _33  and  _35
REMARK   13  A    between atoms: _35  and  _36
REMARK   14  A    between atoms: _38  and  _40
REMARK   15  A    between atoms: _40  and  _41
REMARK   16  A    between atoms: _44  and  _46
REMARK   17  A    between atoms: _46  and  _47
REMARK   18  A    between atoms: _46  and  _49
REMARK   19  A    between atoms: _49  and  _50
REMARK   20  A    between atoms: _50  and  _51
REMARK   21  A    between atoms: _54  and  _56
REMARK   22  A    between atoms: _56  and  _57
REMARK   23  A    between atoms: _56  and  _59
REMARK   24  A    between atoms: _59  and  _60
REMARK   25  A    between atoms: _60  and  _61
REMARK   26  A    between atoms: _64  and  _66
REMARK   27  A    between atoms: _66  and  _67
REMARK   28  A    between atoms: _66  and  _69
REMARK   29  A    between atoms: _69  and  _70
REMARK   30  A    between atoms: _70  and  _71
REMARK   31  A    between atoms: _71  and  _72
REMARK   32  A    between atoms: _81  and  _83
REMARK   33  A    between atoms: _83  and  _84
REMARK   34  A    between atoms: _83  and  _86
REMARK   35  A    between atoms: _86  and  _87
REMARK   36  A    between atoms: _92  and  _94
REMARK   37  A    between atoms: _94  and  _95
REMARK   38  A    between atoms: _94  and  _97
REMARK   39  A    between atoms: _97  and  _98
REMARK   40  A    between atoms: _100  and  _102
REMARK   41  A    between atoms: _102  and  _103
REMARK   42  A    between atoms: _102  and  _105
REMARK   43  A    between atoms: _105  and  _106
REMARK   44  A    between atoms: _111  and  _113
REMARK   45  A    between atoms: _113  and  _114
REMARK   46  A    between atoms: _113  and  _116
REMARK   47  A    between atoms: _116  and  _117
REMARK   48  A    between atoms: _117  and  _118
REMARK   49  A    between atoms: _123  and  _125
REMARK   50  A    between atoms: _125  and  _126
REMARK   51  A    between atoms: _125  and  _128
REMARK   52  A    between atoms: _128  and  _129
REMARK   53  A    between atoms: _129  and  _130
REMARK   54  A    between atoms: _133  and  _135
REMARK   55  A    between atoms: _135  and  _136
REMARK   56  A    between atoms: _135  and  _138
REMARK   57  A    between atoms: _138  and  _139
REMARK   58  A    between atoms: _142  and  _144
REMARK   59  A    between atoms: _144  and  _145
REMARK   60  A    between atoms: _144  and  _147
REMARK   61  A    between atoms: _147  and  _148
REMARK   62  A    between atoms: _148  and  _149
REMARK   63  A    between atoms: _152  and  _154
REMARK   64  A    between atoms: _154  and  _155
REMARK   65  A    between atoms: _154  and  _157
REMARK   66  A    between atoms: _157  and  _158
REMARK   67  A    between atoms: _158  and  _160
REMARK   68  A    between atoms: _160  and  MN_338
REMARK   69  A    between atoms: _161  and  _163
REMARK   70  A    between atoms: _163  and  _164
REMARK   71  A    between atoms: _163  and  _166
REMARK   72  A    between atoms: _166  and  _167
REMARK   73  A    between atoms: _167  and  _168
REMARK   74  A    between atoms: _171  and  _173
REMARK   75  A    between atoms: _173  and  _174
REMARK   76  A    between atoms: _173  and  _176
REMARK   77  A    between atoms: _176  and  _177
REMARK   78  A    between atoms: _177  and  _178
REMARK   79  A    between atoms: _178  and  _180
REMARK   80  A    between atoms: _180  and  MN_338
REMARK   81  A    between atoms: _181  and  _183
REMARK   82  A    between atoms: _183  and  _184
REMARK   83  A    between atoms: _183  and  _186
REMARK   84  A    between atoms: _186  and  _187
REMARK   85  A    between atoms: _187  and  _189
REMARK   86  A    between atoms: _189  and  MN_338
REMARK   87  A    between atoms: _190  and  _192
REMARK   88  A    between atoms: _192  and  _193
REMARK   89  A    between atoms: _192  and  _195
REMARK   90  A    between atoms: _195  and  _196
REMARK   91  A    between atoms: _199  and  _201
REMARK   92  A    between atoms: _201  and  _202
REMARK   93  A    between atoms: _201  and  _204
REMARK   94  A    between atoms: _204  and  _205
REMARK   95  A    between atoms: _208  and  _210
REMARK   96  A    between atoms: _210  and  _211
REMARK   97  A    between atoms: _210  and  _213
REMARK   98  A    between atoms: _213  and  _214
REMARK   99  A    between atoms: _214  and  _215
REMARK  100  A    between atoms: _215  and  _216
REMARK  101  A    between atoms: _216  and  _217
REMARK  102  A    between atoms: _221  and  _223
REMARK  103  A    between atoms: _223  and  _224
REMARK  104  A    between atoms: _223  and  _226
REMARK  105  A    between atoms: _226  and  _227
REMARK  106  A    between atoms: _232  and  _234
REMARK  107  A    between atoms: _234  and  _235
REMARK  108  A    between atoms: _234  and  _237
REMARK  109  A    between atoms: _237  and  _238
REMARK  110  A    between atoms: _238  and  _239
REMARK  111  A    between atoms: _244  and  _246
REMARK  112  A    between atoms: _246  and  _247
REMARK  113  A    between atoms: _246  and  _249
REMARK  114  A    between atoms: _249  and  _250
REMARK  115  A    between atoms: _252  and  _254
REMARK  116  A    between atoms: _254  and  _255
REMARK  117  A    between atoms: _254  and  _257
REMARK  118  A    between atoms: _257  and  _258
REMARK  119  A    between atoms: _263  and  _265
REMARK  120  A    between atoms: _265  and  _266
REMARK  121  A    between atoms: _265  and  _268
REMARK  122  A    between atoms: _268  and  _269
REMARK  123  A    between atoms: _269  and  _270
REMARK  124  A    between atoms: _270  and  _271
REMARK  125  A    between atoms: _280  and  _282
REMARK  126  A    between atoms: _282  and  _283
REMARK  127  A    between atoms: _282  and  _285
REMARK  128  A    between atoms: _285  and  _286
REMARK  129  A    between atoms: _288  and  _290
REMARK  130  A    between atoms: _290  and  _291
REMARK  131  A    between atoms: _293  and  _295
REMARK  132  A    between atoms: _295  and  _296
REMARK  133  A    between atoms: _295  and  _298
REMARK  134  A    between atoms: _298  and  _299
REMARK  135  A    between atoms: _299  and  _300
REMARK  136  A    between atoms: _303  and  _305
REMARK  137  A    between atoms: _305  and  _306
REMARK  138  A    between atoms: _305  and  _308
REMARK  139  A    between atoms: _308  and  _309
REMARK  140  A    between atoms: _309  and  _310
REMARK  141  A    between atoms: _310  and  _311
REMARK  142  A    between atoms: _311  and  _312
REMARK  143  A    between atoms: _316  and  _318
REMARK  144  A    between atoms: _318  and  _319
REMARK  145  A    between atoms: _321  and  _323
REMARK  146  A    between atoms: _323  and  _324
REMARK  147  A    between atoms: _323  and  _326
REMARK  148  A    between atoms: _326  and  _327
REMARK  149  A    between atoms: _327  and  _328
REMARK  150  A    between atoms: _328  and  _329
REMARK                            x       y       z     vdW  Elec       q    Type
REMARK                         _______ _______ _______ _____ _____    ______ ____
ROOT
ATOM      1  CA  GLU A   1      32.710  81.078  18.449  0.00  0.00    +0.134 C 
ENDROOT
BRANCH   1   2
ATOM      2  N   GLU A   1      31.252  80.990  18.480  0.00  0.00    -0.239 NA
ATOM      3  H   GLU A   1      30.747  80.728  17.610  0.00  0.00    +0.142 HD
ENDBRANCH   1   2
BRANCH   1   4
ATOM      4  C   GLU A   1      33.274  82.477  18.689  0.00  0.00    +0.224 C 
ATOM      5  O   GLU A   1      34.319  82.619  19.331  0.00  0.00    -0.287 OA
ENDBRANCH   1   4
BRANCH   1   6
ATOM      6  CB  GLU A   1      33.248  80.544  17.119  0.00  0.00    +0.037 C 
BRANCH   6   7
ATOM      7  CG  GLU A   1      32.688  79.182  16.703  0.00  0.00    +0.116 C 
BRANCH   7   8
ATOM      8  CD  GLU A   1      33.249  78.005  17.497  0.00  0.00    +0.365 C 
ATOM      9  OE2 GLU A   1      33.941  78.232  18.519  0.00  0.00    -0.246 OA
ATOM     10  OE1 GLU A   1      33.006  76.842  17.082  0.00  0.00    -0.246 OA
ENDBRANCH   7   8
ENDBRANCH   6   7
ENDBRANCH   1   6
TORSDOF 5
REMARK  Name = ../refined-set-2016/1pdz/1pdz_pocket.pdb
REMARK  150 active torsions:
REMARK  status: ('A' for Active; 'I' for Inactive)
REMARK    1  A    between atoms: _1  and  _3
REMARK    2  A    between atoms: _3  and  _4
REMARK    3  A    between atoms: _3  and  _6
REMARK    4  A    between atoms: _6  and  _7
REMARK    5  A    between atoms: _7  and  _8
REMARK    6  A    between atoms: _8  and  _9
REMARK    7  A    between atoms: _19  and  _20
REMARK    8  A    between atoms: _25  and  _27
REMARK    9  A    between atoms: _27  and  _28
REMARK   10  A    between atoms: _27  and  _30
REMARK   11  A    between atoms: _30  and  _31
REMARK   12  A    between atoms: _33  and  _35
REMARK   13  A    between atoms: _35  and  _36
REMARK   14  A    between atoms: _38  and  _40
REMARK   15  A    between atoms: _40  and  _41
REMARK   16  A    between atoms: _44  and  _46
REMARK   17  A    between atoms: _46  and  _47
REMARK   18  A    between atoms: _46  and  _49
REMARK   19  A    between atoms: _49  and  _50
REMARK   20  A    between atoms: _50  and  _51
REMARK   21  A    between atoms: _54  and  _56
REMARK   22  A    between atoms: _56  and  _57
REMARK   23  A    between atoms: _56  and  _59
REMARK   24  A    between atoms: _59  and  _60
REMARK   25  A    between atoms: _60  and  _61
REMARK   26  A    between atoms: _64  and  _66
REMARK   27  A    between atoms: _66  and  _67
REMARK   28  A    between atoms: _66  and  _69
REMARK   29  A    between atoms: _69  and  _70
REMARK   30  A    between atoms: _70  and  _71
REMARK   31  A    between atoms: _71  and  _72
REMARK   32  A    between atoms: _81  and  _83
REMARK   33  A    between atoms: _83  and  _84
REMARK   34  A    between atoms: _83  and  _86
REMARK   35  A    between atoms: _86  and  _87
REMARK   36  A    between atoms: _92  and  _94
REMARK   37  A    between atoms: _94  and  _95
REMARK   38  A    between atoms: _94  and  _97
REMARK   39  A    between atoms: _97  and  _98
REMARK   40  A    between atoms: _100  and  _102
REMARK   41  A    between atoms: _102  and  _103
REMARK   42  A    between atoms: _102  and  _105
REMARK   43  A    between atoms: _105  and  _106
REMARK   44  A    between atoms: _111  and  _113
REMARK   45  A    between atoms: _113  and  _114
REMARK   46  A    between atoms: _113  and  _116
REMARK   47  A    between atoms: _116  and  _117
REMARK   48  A    between atoms: _117  and  _118
REMARK   49  A    between atoms: _123  and  _125
REMARK   50  A    between atoms: _125  and  _126
REMARK   51  A    between atoms: _125  and  _128
REMARK   52  A    between atoms: _128  and  _129
REMARK   53  A    between atoms: _129  and  _130
REMARK   54  A    between atoms: _133  and  _135
REMARK   55  A    between atoms: _135  and  _136
REMARK   56  A    between atoms: _135  and  _138
REMARK   57  A    between atoms: _138  and  _139
REMARK   58  A    between atoms: _142  and  _144
REMARK   59  A    between atoms: _144  and  _145
REMARK   60  A    between atoms: _144  and  _147
REMARK   61  A    between atoms: _147  and  _148
REMARK   62  A    between atoms: _148  and  _149
REMARK   63  A    between atoms: _152  and  _154
REMARK   64  A    between atoms: _154  and  _155
REMARK   65  A    between atoms: _154  and  _157
REMARK   66  A    between atoms: _157  and  _158
REMARK   67  A    between atoms: _158  and  _160
REMARK   68  A    between atoms: _160  and  MN_338
REMARK   69  A    between atoms: _161  and  _163
REMARK   70  A    between atoms: _163  and  _164
REMARK   71  A    between atoms: _163  and  _166
REMARK   72  A    between atoms: _166  and  _167
REMARK   73  A    between atoms: _167  and  _168
REMARK   74  A    between atoms: _171  and  _173
REMARK   75  A    between atoms: _173  and  _174
REMARK   76  A    between atoms: _173  and  _176
REMARK   77  A    between atoms: _176  and  _177
REMARK   78  A    between atoms: _177  and  _178
REMARK   79  A    between atoms: _178  and  _180
REMARK   80  A    between atoms: _180  and  MN_338
REMARK   81  A    between atoms: _181  and  _183
REMARK   82  A    between atoms: _183  and  _184
REMARK   83  A    between atoms: _183  and  _186
REMARK   84  A    between atoms: _186  and  _187
REMARK   85  A    between atoms: _187  and  _189
REMARK   86  A    between atoms: _189  and  MN_338
REMARK   87  A    between atoms: _190  and  _192
REMARK   88  A    between atoms: _192  and  _193
REMARK   89  A    between atoms: _192  and  _195
REMARK   90  A    between atoms: _195  and  _196
REMARK   91  A    between atoms: _199  and  _201
REMARK   92  A    between atoms: _201  and  _202
REMARK   93  A    between atoms: _201  and  _204
REMARK   94  A    between atoms: _204  and  _205
REMARK   95  A    between atoms: _208  and  _210
REMARK   96  A    between atoms: _210  and  _211
REMARK   97  A    between atoms: _210  and  _213
REMARK   98  A    between atoms: _213  and  _214
REMARK   99  A    between atoms: _214  and  _215
REMARK  100  A    between atoms: _215  and  _216
REMARK  101  A    between atoms: _216  and  _217
REMARK  102  A    between atoms: _221  and  _223
REMARK  103  A    between atoms: _223  and  _224
REMARK  104  A    between atoms: _223  and  _226
REMARK  105  A    between atoms: _226  and  _227
REMARK  106  A    between atoms: _232  and  _234
REMARK  107  A    between atoms: _234  and  _235
REMARK  108  A    between atoms: _234  and  _237
REMARK  109  A    between atoms: _237  and  _238
REMARK  110  A    between atoms: _238  and  _239
REMARK  111  A    between atoms: _244  and  _246
REMARK  112  A    between atoms: _246  and  _247
REMARK  113  A    between atoms: _246  and  _249
REMARK  114  A    between atoms: _249  and  _250
REMARK  115  A    between atoms: _252  and  _254
REMARK  116  A    between atoms: _254  and  _255
REMARK  117  A    between atoms: _254  and  _257
REMARK  118  A    between atoms: _257  and  _258
REMARK  119  A    between atoms: _263  and  _265
REMARK  120  A    between atoms: _265  and  _266
REMARK  121  A    between atoms: _265  and  _268
REMARK  122  A    between atoms: _268  and  _269
REMARK  123  A    between atoms: _269  and  _270
REMARK  124  A    between atoms: _270  and  _271
REMARK  125  A    between atoms: _280  and  _282
REMARK  126  A    between atoms: _282  and  _283
REMARK  127  A    between atoms: _282  and  _285
REMARK  128  A    between atoms: _285  and  _286
REMARK  129  A    between atoms: _288  and  _290
REMARK  130  A    between atoms: _290  and  _291
REMARK  131  A    between atoms: _293  and  _295
REMARK  132  A    between atoms: _295  and  _296
REMARK  133  A    between atoms: _295  and  _298
REMARK  134  A    between atoms: _298  and  _299
REMARK  135  A    between atoms: _299  and  _300
REMARK  136  A    between atoms: _303  and  _305
REMARK  137  A    between atoms: _305  and  _306
REMARK  138  A    between atoms: _305  and  _308
REMARK  139  A    between atoms: _308  and  _309
REMARK  140  A    between atoms: _309  and  _310
REMARK  141  A    between atoms: _310  and  _311
REMARK  142  A    between atoms: _311  and  _312
REMARK  143  A    between atoms: _316  and  _318
REMARK  144  A    between atoms: _318  and  _319
REMARK  145  A    between atoms: _321  and  _323
REMARK  146  A    between atoms: _323  and  _324
REMARK  147  A    between atoms: _323  and  _326
REMARK  148  A    between atoms: _326  and  _327
REMARK  149  A    between atoms: _327  and  _328
REMARK  150  A    between atoms: _328  and  _329
REMARK                            x       y       z     vdW  Elec       q    Type
REMARK                         _______ _______ _______ _____ _____    ______ ____
ROOT
ATOM      1  CA  LEU A   1      19.783  70.793  12.678  0.00  0.00    +0.133 C 
ENDROOT
BRANCH   1   2
ATOM      2  N   LEU A   1      18.740  71.387  13.512  0.00  0.00    -0.239 NA
ATOM      3  H   LEU A   1      19.001  71.924  14.364  0.00  0.00    +0.142 HD
ENDBRANCH   1   2
BRANCH   1   4
ATOM      4  C   LEU A   1      19.905  69.414  13.344  0.00  0.00    +0.224 C 
ATOM      5  O   LEU A   1      20.168  69.321  14.549  0.00  0.00    -0.287 OA
ENDBRANCH   1   4
BRANCH   1   6
ATOM      6  CB  LEU A   1      21.119  71.549  12.790  0.00  0.00    +0.025 C 
BRANCH   6   7
ATOM      7  CG  LEU A   1      22.107  71.064  11.727  0.00  0.00    +0.002 C 
ATOM      8  CD2 LEU A   1      23.488  71.415  12.138  0.00  0.00    +0.000 C 
ATOM      9  CD1 LEU A   1      21.786  71.667  10.390  0.00  0.00    +0.000 C 
ENDBRANCH   6   7
ENDBRANCH   1   6
TORSDOF 4
REMARK  Name = ../refined-set-2016/1pdz/1pdz_pocket.pdb
REMARK  150 active torsions:
REMARK  status: ('A' for Active; 'I' for Inactive)
REMARK    1  A    between atoms: _1  and  _3
REMARK    2  A    between atoms: _3  and  _4
REMARK    3  A    between atoms: _3  and  _6
REMARK    4  A    between atoms: _6  and  _7
REMARK    5  A    between atoms: _7  and  _8
REMARK    6  A    between atoms: _8  and  _9
REMARK    7  A    between atoms: _19  and  _20
REMARK    8  A    between atoms: _25  and  _27
REMARK    9  A    between atoms: _27  and  _28
REMARK   10  A    between atoms: _27  and  _30
REMARK   11  A    between atoms: _30  and  _31
REMARK   12  A    between atoms: _33  and  _35
REMARK   13  A    between atoms: _35  and  _36
REMARK   14  A    between atoms: _38  and  _40
REMARK   15  A    between atoms: _40  and  _41
REMARK   16  A    between atoms: _44  and  _46
REMARK   17  A    between atoms: _46  and  _47
REMARK   18  A    between atoms: _46  and  _49
REMARK   19  A    between atoms: _49  and  _50
REMARK   20  A    between atoms: _50  and  _51
REMARK   21  A    between atoms: _54  and  _56
REMARK   22  A    between atoms: _56  and  _57
REMARK   23  A    between atoms: _56  and  _59
REMARK   24  A    between atoms: _59  and  _60
REMARK   25  A    between atoms: _60  and  _61
REMARK   26  A    between atoms: _64  and  _66
REMARK   27  A    between atoms: _66  and  _67
REMARK   28  A    between atoms: _66  and  _69
REMARK   29  A    between atoms: _69  and  _70
REMARK   30  A    between atoms: _70  and  _71
REMARK   31  A    between atoms: _71  and  _72
REMARK   32  A    between atoms: _81  and  _83
REMARK   33  A    between atoms: _83  and  _84
REMARK   34  A    between atoms: _83  and  _86
REMARK   35  A    between atoms: _86  and  _87
REMARK   36  A    between atoms: _92  and  _94
REMARK   37  A    between atoms: _94  and  _95
REMARK   38  A    between atoms: _94  and  _97
REMARK   39  A    between atoms: _97  and  _98
REMARK   40  A    between atoms: _100  and  _102
REMARK   41  A    between atoms: _102  and  _103
REMARK   42  A    between atoms: _102  and  _105
REMARK   43  A    between atoms: _105  and  _106
REMARK   44  A    between atoms: _111  and  _113
REMARK   45  A    between atoms: _113  and  _114
REMARK   46  A    between atoms: _113  and  _116
REMARK   47  A    between atoms: _116  and  _117
REMARK   48  A    between atoms: _117  and  _118
REMARK   49  A    between atoms: _123  and  _125
REMARK   50  A    between atoms: _125  and  _126
REMARK   51  A    between atoms: _125  and  _128
REMARK   52  A    between atoms: _128  and  _129
REMARK   53  A    between atoms: _129  and  _130
REMARK   54  A    between atoms: _133  and  _135
REMARK   55  A    between atoms: _135  and  _136
REMARK   56  A    between atoms: _135  and  _138
REMARK   57  A    between atoms: _138  and  _139
REMARK   58  A    between atoms: _142  and  _144
REMARK   59  A    between atoms: _144  and  _145
REMARK   60  A    between atoms: _144  and  _147
REMARK   61  A    between atoms: _147  and  _148
REMARK   62  A    between atoms: _148  and  _149
REMARK   63  A    between atoms: _152  and  _154
REMARK   64  A    between atoms: _154  and  _155
REMARK   65  A    between atoms: _154  and  _157
REMARK   66  A    between atoms: _157  and  _158
REMARK   67  A    between atoms: _158  and  _160
REMARK   68  A    between atoms: _160  and  MN_338
REMARK   69  A    between atoms: _161  and  _163
REMARK   70  A    between atoms: _163  and  _164
REMARK   71  A    between atoms: _163  and  _166
REMARK   72  A    between atoms: _166  and  _167
REMARK   73  A    between atoms: _167  and  _168
REMARK   74  A    between atoms: _171  and  _173
REMARK   75  A    between atoms: _173  and  _174
REMARK   76  A    between atoms: _173  and  _176
REMARK   77  A    between atoms: _176  and  _177
REMARK   78  A    between atoms: _177  and  _178
REMARK   79  A    between atoms: _178  and  _180
REMARK   80  A    between atoms: _180  and  MN_338
REMARK   81  A    between atoms: _181  and  _183
REMARK   82  A    between atoms: _183  and  _184
REMARK   83  A    between atoms: _183  and  _186
REMARK   84  A    between atoms: _186  and  _187
REMARK   85  A    between atoms: _187  and  _189
REMARK   86  A    between atoms: _189  and  MN_338
REMARK   87  A    between atoms: _190  and  _192
REMARK   88  A    between atoms: _192  and  _193
REMARK   89  A    between atoms: _192  and  _195
REMARK   90  A    between atoms: _195  and  _196
REMARK   91  A    between atoms: _199  and  _201
REMARK   92  A    between atoms: _201  and  _202
REMARK   93  A    between atoms: _201  and  _204
REMARK   94  A    between atoms: _204  and  _205
REMARK   95  A    between atoms: _208  and  _210
REMARK   96  A    between atoms: _210  and  _211
REMARK   97  A    between atoms: _210  and  _213
REMARK   98  A    between atoms: _213  and  _214
REMARK   99  A    between atoms: _214  and  _215
REMARK  100  A    between atoms: _215  and  _216
REMARK  101  A    between atoms: _216  and  _217
REMARK  102  A    between atoms: _221  and  _223
REMARK  103  A    between atoms: _223  and  _224
REMARK  104  A    between atoms: _223  and  _226
REMARK  105  A    between atoms: _226  and  _227
REMARK  106  A    between atoms: _232  and  _234
REMARK  107  A    between atoms: _234  and  _235
REMARK  108  A    between atoms: _234  and  _237
REMARK  109  A    between atoms: _237  and  _238
REMARK  110  A    between atoms: _238  and  _239
REMARK  111  A    between atoms: _244  and  _246
REMARK  112  A    between atoms: _246  and  _247
REMARK  113  A    between atoms: _246  and  _249
REMARK  114  A    between atoms: _249  and  _250
REMARK  115  A    between atoms: _252  and  _254
REMARK  116  A    between atoms: _254  and  _255
REMARK  117  A    between atoms: _254  and  _257
REMARK  118  A    between atoms: _257  and  _258
REMARK  119  A    between atoms: _263  and  _265
REMARK  120  A    between atoms: _265  and  _266
REMARK  121  A    between atoms: _265  and  _268
REMARK  122  A    between atoms: _268  and  _269
REMARK  123  A    between atoms: _269  and  _270
REMARK  124  A    between atoms: _270  and  _271
REMARK  125  A    between atoms: _280  and  _282
REMARK  126  A    between atoms: _282  and  _283
REMARK  127  A    between atoms: _282  and  _285
REMARK  128  A    between atoms: _285  and  _286
REMARK  129  A    between atoms: _288  and  _290
REMARK  130  A    between atoms: _290  and  _291
REMARK  131  A    between atoms: _293  and  _295
REMARK  132  A    between atoms: _295  and  _296
REMARK  133  A    between atoms: _295  and  _298
REMARK  134  A    between atoms: _298  and  _299
REMARK  135  A    between atoms: _299  and  _300
REMARK  136  A    between atoms: _303  and  _305
REMARK  137  A    between atoms: _305  and  _306
REMARK  138  A    between atoms: _305  and  _308
REMARK  139  A    between atoms: _308  and  _309
REMARK  140  A    between atoms: _309  and  _310
REMARK  141  A    between atoms: _310  and  _311
REMARK  142  A    between atoms: _311  and  _312
REMARK  143  A    between atoms: _316  and  _318
REMARK  144  A    between atoms: _318  and  _319
REMARK  145  A    between atoms: _321  and  _323
REMARK  146  A    between atoms: _323  and  _324
REMARK  147  A    between atoms: _323  and  _326
REMARK  148  A    between atoms: _326  and  _327
REMARK  149  A    between atoms: _327  and  _328
REMARK  150  A    between atoms: _328  and  _329
REMARK                            x       y       z     vdW  Elec       q    Type
REMARK                         _______ _______ _______ _____ _____    ______ ____
ROOT
ATOM      1  CG  LYS A   1      24.673  67.434  13.444  0.00  0.00    -0.000 C 
ENDROOT
BRANCH   1   2
ATOM      2  CB  LYS A   1      24.226  66.354  14.394  0.00  0.00    +0.025 C 
BRANCH   2   3
ATOM      3  CA  LYS A   1      23.082  65.500  13.871  0.00  0.00    +0.133 C 
BRANCH   3   4
ATOM      4  N   LYS A   1      21.804  66.197  13.974  0.00  0.00    -0.239 NA
ATOM      5  H   LYS A   1      21.510  66.592  14.890  0.00  0.00    +0.142 HD
ENDBRANCH   3   4
BRANCH   3   6
ATOM      6  C   LYS A   1      22.962  64.258  14.733  0.00  0.00    +0.224 C 
ATOM      7  O   LYS A   1      23.144  64.345  15.943  0.00  0.00    -0.287 OA
ENDBRANCH   3   6
ENDBRANCH   2   3
ENDBRANCH   1   2
BRANCH   1   8
ATOM      8  CD  LYS A   1      25.551  68.441  14.170  0.00  0.00    -0.024 C 
BRANCH   8   9
ATOM      9  CE  LYS A   1      26.074  69.469  13.201  0.00  0.00    -0.086 C 
BRANCH   9  10
ATOM     10  NZ  LYS A   1      26.961  70.401  13.903  0.00  0.00    +0.380 N 
ATOM     11  HZ1 LYS A   1      26.431  70.878  14.661  0.00  0.00    -0.089 HD
ATOM     12  HZ2 LYS A   1      27.759  69.875  14.314  0.00  0.00    -0.089 HD
ATOM     13  HZ3 LYS A   1      27.320  71.109  13.231  0.00  0.00    -0.089 HD
ENDBRANCH   9  10
ENDBRANCH   8   9
ENDBRANCH   1   8
TORSDOF 7
REMARK  Name = ../refined-set-2016/1pdz/1pdz_pocket.pdb
REMARK  150 active torsions:
REMARK  status: ('A' for Active; 'I' for Inactive)
REMARK    1  A    between atoms: _1  and  _3
REMARK    2  A    between atoms: _3  and  _4
REMARK    3  A    between atoms: _3  and  _6
REMARK    4  A    between atoms: _6  and  _7
REMARK    5  A    between atoms: _7  and  _8
REMARK    6  A    between atoms: _8  and  _9
REMARK    7  A    between atoms: _19  and  _20
REMARK    8  A    between atoms: _25  and  _27
REMARK    9  A    between atoms: _27  and  _28
REMARK   10  A    between atoms: _27  and  _30
REMARK   11  A    between atoms: _30  and  _31
REMARK   12  A    between atoms: _33  and  _35
REMARK   13  A    between atoms: _35  and  _36
REMARK   14  A    between atoms: _38  and  _40
REMARK   15  A    between atoms: _40  and  _41
REMARK   16  A    between atoms: _44  and  _46
REMARK   17  A    between atoms: _46  and  _47
REMARK   18  A    between atoms: _46  and  _49
REMARK   19  A    between atoms: _49  and  _50
REMARK   20  A    between atoms: _50  and  _51
REMARK   21  A    between atoms: _54  and  _56
REMARK   22  A    between atoms: _56  and  _57
REMARK   23  A    between atoms: _56  and  _59
REMARK   24  A    between atoms: _59  and  _60
REMARK   25  A    between atoms: _60  and  _61
REMARK   26  A    between atoms: _64  and  _66
REMARK   27  A    between atoms: _66  and  _67
REMARK   28  A    between atoms: _66  and  _69
REMARK   29  A    between atoms: _69  and  _70
REMARK   30  A    between atoms: _70  and  _71
REMARK   31  A    between atoms: _71  and  _72
REMARK   32  A    between atoms: _81  and  _83
REMARK   33  A    between atoms: _83  and  _84
REMARK   34  A    between atoms: _83  and  _86
REMARK   35  A    between atoms: _86  and  _87
REMARK   36  A    between atoms: _92  and  _94
REMARK   37  A    between atoms: _94  and  _95
REMARK   38  A    between atoms: _94  and  _97
REMARK   39  A    between atoms: _97  and  _98
REMARK   40  A    between atoms: _100  and  _102
REMARK   41  A    between atoms: _102  and  _103
REMARK   42  A    between atoms: _102  and  _105
REMARK   43  A    between atoms: _105  and  _106
REMARK   44  A    between atoms: _111  and  _113
REMARK   45  A    between atoms: _113  and  _114
REMARK   46  A    between atoms: _113  and  _116
REMARK   47  A    between atoms: _116  and  _117
REMARK   48  A    between atoms: _117  and  _118
REMARK   49  A    between atoms: _123  and  _125
REMARK   50  A    between atoms: _125  and  _126
REMARK   51  A    between atoms: _125  and  _128
REMARK   52  A    between atoms: _128  and  _129
REMARK   53  A    between atoms: _129  and  _130
REMARK   54  A    between atoms: _133  and  _135
REMARK   55  A    between atoms: _135  and  _136
REMARK   56  A    between atoms: _135  and  _138
REMARK   57  A    between atoms: _138  and  _139
REMARK   58  A    between atoms: _142  and  _144
REMARK   59  A    between atoms: _144  and  _145
REMARK   60  A    between atoms: _144  and  _147
REMARK   61  A    between atoms: _147  and  _148
REMARK   62  A    between atoms: _148  and  _149
REMARK   63  A    between atoms: _152  and  _154
REMARK   64  A    between atoms: _154  and  _155
REMARK   65  A    between atoms: _154  and  _157
REMARK   66  A    between atoms: _157  and  _158
REMARK   67  A    between atoms: _158  and  _160
REMARK   68  A    between atoms: _160  and  MN_338
REMARK   69  A    between atoms: _161  and  _163
REMARK   70  A    between atoms: _163  and  _164
REMARK   71  A    between atoms: _163  and  _166
REMARK   72  A    between atoms: _166  and  _167
REMARK   73  A    between atoms: _167  and  _168
REMARK   74  A    between atoms: _171  and  _173
REMARK   75  A    between atoms: _173  and  _174
REMARK   76  A    between atoms: _173  and  _176
REMARK   77  A    between atoms: _176  and  _177
REMARK   78  A    between atoms: _177  and  _178
REMARK   79  A    between atoms: _178  and  _180
REMARK   80  A    between atoms: _180  and  MN_338
REMARK   81  A    between atoms: _181  and  _183
REMARK   82  A    between atoms: _183  and  _184
REMARK   83  A    between atoms: _183  and  _186
REMARK   84  A    between atoms: _186  and  _187
REMARK   85  A    between atoms: _187  and  _189
REMARK   86  A    between atoms: _189  and  MN_338
REMARK   87  A    between atoms: _190  and  _192
REMARK   88  A    between atoms: _192  and  _193
REMARK   89  A    between atoms: _192  and  _195
REMARK   90  A    between atoms: _195  and  _196
REMARK   91  A    between atoms: _199  and  _201
REMARK   92  A    between atoms: _201  and  _202
REMARK   93  A    between atoms: _201  and  _204
REMARK   94  A    between atoms: _204  and  _205
REMARK   95  A    between atoms: _208  and  _210
REMARK   96  A    between atoms: _210  and  _211
REMARK   97  A    between atoms: _210  and  _213
REMARK   98  A    between atoms: _213  and  _214
REMARK   99  A    between atoms: _214  and  _215
REMARK  100  A    between atoms: _215  and  _216
REMARK  101  A    between atoms: _216  and  _217
REMARK  102  A    between atoms: _221  and  _223
REMARK  103  A    between atoms: _223  and  _224
REMARK  104  A    between atoms: _223  and  _226
REMARK  105  A    between atoms: _226  and  _227
REMARK  106  A    between atoms: _232  and  _234
REMARK  107  A    between atoms: _234  and  _235
REMARK  108  A    between atoms: _234  and  _237
REMARK  109  A    between atoms: _237  and  _238
REMARK  110  A    between atoms: _238  and  _239
REMARK  111  A    between atoms: _244  and  _246
REMARK  112  A    between atoms: _246  and  _247
REMARK  113  A    between atoms: _246  and  _249
REMARK  114  A    between atoms: _249  and  _250
REMARK  115  A    between atoms: _252  and  _254
REMARK  116  A    between atoms: _254  and  _255
REMARK  117  A    between atoms: _254  and  _257
REMARK  118  A    between atoms: _257  and  _258
REMARK  119  A    between atoms: _263  and  _265
REMARK  120  A    between atoms: _265  and  _266
REMARK  121  A    between atoms: _265  and  _268
REMARK  122  A    between atoms: _268  and  _269
REMARK  123  A    between atoms: _269  and  _270
REMARK  124  A    between atoms: _270  and  _271
REMARK  125  A    between atoms: _280  and  _282
REMARK  126  A    between atoms: _282  and  _283
REMARK  127  A    between atoms: _282  and  _285
REMARK  128  A    between atoms: _285  and  _286
REMARK  129  A    between atoms: _288  and  _290
REMARK  130  A    between atoms: _290  and  _291
REMARK  131  A    between atoms: _293  and  _295
REMARK  132  A    between atoms: _295  and  _296
REMARK  133  A    between atoms: _295  and  _298
REMARK  134  A    between atoms: _298  and  _299
REMARK  135  A    between atoms: _299  and  _300
REMARK  136  A    between atoms: _303  and  _305
REMARK  137  A    between atoms: _305  and  _306
REMARK  138  A    between atoms: _305  and  _308
REMARK  139  A    between atoms: _308  and  _309
REMARK  140  A    between atoms: _309  and  _310
REMARK  141  A    between atoms: _310  and  _311
REMARK  142  A    between atoms: _311  and  _312
REMARK  143  A    between atoms: _316  and  _318
REMARK  144  A    between atoms: _318  and  _319
REMARK  145  A    between atoms: _321  and  _323
REMARK  146  A    between atoms: _323  and  _324
REMARK  147  A    between atoms: _323  and  _326
REMARK  148  A    between atoms: _326  and  _327
REMARK  149  A    between atoms: _327  and  _328
REMARK  150  A    between atoms: _328  and  _329
REMARK                            x       y       z     vdW  Elec       q    Type
REMARK                         _______ _______ _______ _____ _____    ______ ____
ROOT
ATOM      1  C   ASN A   1      25.964  62.381  17.756  0.00  0.00    +0.239 C 
ATOM      2  O   ASN A   1      26.661  62.134  18.737  0.00  0.00    -0.274 OA
ATOM      3  N   GLN A   2      25.221  63.468  17.682  0.00  0.00    -0.298 N 
ATOM      4  H   GLN A   2      24.656  63.653  16.829  0.00  0.00    +0.150 HD
ENDROOT
BRANCH   1   5
ATOM      5  CA  ASN A   1      25.894  61.435  16.566  0.00  0.00    +0.154 C 
BRANCH   5   6
ATOM      6  N   ASN A   1      24.847  61.762  15.601  0.00  0.00    -0.238 NA
ATOM      7  H   ASN A   1      25.096  62.195  14.689  0.00  0.00    +0.142 HD
ENDBRANCH   5   6
BRANCH   5   8
ATOM      8  CB  ASN A   1      27.255  61.289  15.889  0.00  0.00    +0.111 C 
BRANCH   8   9
ATOM      9  CG  ASN A   1      27.944  62.598  15.655  0.00  0.00    +0.221 C 
ATOM     10  ND2 ASN A   1      29.170  62.694  16.109  0.00  0.00    -0.329 N 
ATOM     11 HD21 ASN A   1      29.603  61.893  16.611  0.00  0.00    +0.145 HD
ATOM     12 HD22 ASN A   1      29.710  63.572  15.967  0.00  0.00    +0.145 HD
ATOM     13  OD1 ASN A   1      27.392  63.508  15.061  0.00  0.00    -0.275 OA
ENDBRANCH   8   9
ENDBRANCH   5   8
ENDBRANCH   1   5
BRANCH   3  14
ATOM     14  CA  GLN A   2      25.190  64.405  18.787  0.00  0.00    +0.137 C 
BRANCH  14  15
ATOM     15  C   GLN A   2      24.353  63.809  19.917  0.00  0.00    +0.227 C 
ATOM     16  O   GLN A   2      24.674  63.981  21.080  0.00  0.00    -0.286 OA
ENDBRANCH  14  15
BRANCH  14  17
ATOM     17  CB  GLN A   2      24.568  65.701  18.317  0.00  0.00    +0.037 C 
BRANCH  17  18
ATOM     18  CG  GLN A   2      25.047  66.890  19.062  0.00  0.00    +0.087 C 
BRANCH  18  19
ATOM     19  CD  GLN A   2      25.115  68.074  18.165  0.00  0.00    +0.219 C 
ATOM     20  NE2 GLN A   2      26.267  68.738  18.144  0.00  0.00    -0.329 N 
ATOM     21 HE21 GLN A   2      27.048  68.444  18.765  0.00  0.00    +0.145 HD
ATOM     22 HE22 GLN A   2      26.387  69.551  17.507  0.00  0.00    +0.145 HD
ATOM     23  OE1 GLN A   2      24.158  68.373  17.456  0.00  0.00    -0.275 OA
ENDBRANCH  18  19
ENDBRANCH  17  18
ENDBRANCH  14  17
ENDBRANCH   3  14
TORSDOF 9
REMARK  Name = ../refined-set-2016/1pdz/1pdz_pocket.pdb
REMARK  150 active torsions:
REMARK  status: ('A' for Active; 'I' for Inactive)
REMARK    1  A    between atoms: _1  and  _3
REMARK    2  A    between atoms: _3  and  _4
REMARK    3  A    between atoms: _3  and  _6
REMARK    4  A    between atoms: _6  and  _7
REMARK    5  A    between atoms: _7  and  _8
REMARK    6  A    between atoms: _8  and  _9
REMARK    7  A    between atoms: _19  and  _20
REMARK    8  A    between atoms: _25  and  _27
REMARK    9  A    between atoms: _27  and  _28
REMARK   10  A    between atoms: _27  and  _30
REMARK   11  A    between atoms: _30  and  _31
REMARK   12  A    between atoms: _33  and  _35
REMARK   13  A    between atoms: _35  and  _36
REMARK   14  A    between atoms: _38  and  _40
REMARK   15  A    between atoms: _40  and  _41
REMARK   16  A    between atoms: _44  and  _46
REMARK   17  A    between atoms: _46  and  _47
REMARK   18  A    between atoms: _46  and  _49
REMARK   19  A    between atoms: _49  and  _50
REMARK   20  A    between atoms: _50  and  _51
REMARK   21  A    between atoms: _54  and  _56
REMARK   22  A    between atoms: _56  and  _57
REMARK   23  A    between atoms: _56  and  _59
REMARK   24  A    between atoms: _59  and  _60
REMARK   25  A    between atoms: _60  and  _61
REMARK   26  A    between atoms: _64  and  _66
REMARK   27  A    between atoms: _66  and  _67
REMARK   28  A    between atoms: _66  and  _69
REMARK   29  A    between atoms: _69  and  _70
REMARK   30  A    between atoms: _70  and  _71
REMARK   31  A    between atoms: _71  and  _72
REMARK   32  A    between atoms: _81  and  _83
REMARK   33  A    between atoms: _83  and  _84
REMARK   34  A    between atoms: _83  and  _86
REMARK   35  A    between atoms: _86  and  _87
REMARK   36  A    between atoms: _92  and  _94
REMARK   37  A    between atoms: _94  and  _95
REMARK   38  A    between atoms: _94  and  _97
REMARK   39  A    between atoms: _97  and  _98
REMARK   40  A    between atoms: _100  and  _102
REMARK   41  A    between atoms: _102  and  _103
REMARK   42  A    between atoms: _102  and  _105
REMARK   43  A    between atoms: _105  and  _106
REMARK   44  A    between atoms: _111  and  _113
REMARK   45  A    between atoms: _113  and  _114
REMARK   46  A    between atoms: _113  and  _116
REMARK   47  A    between atoms: _116  and  _117
REMARK   48  A    between atoms: _117  and  _118
REMARK   49  A    between atoms: _123  and  _125
REMARK   50  A    between atoms: _125  and  _126
REMARK   51  A    between atoms: _125  and  _128
REMARK   52  A    between atoms: _128  and  _129
REMARK   53  A    between atoms: _129  and  _130
REMARK   54  A    between atoms: _133  and  _135
REMARK   55  A    between atoms: _135  and  _136
REMARK   56  A    between atoms: _135  and  _138
REMARK   57  A    between atoms: _138  and  _139
REMARK   58  A    between atoms: _142  and  _144
REMARK   59  A    between atoms: _144  and  _145
REMARK   60  A    between atoms: _144  and  _147
REMARK   61  A    between atoms: _147  and  _148
REMARK   62  A    between atoms: _148  and  _149
REMARK   63  A    between atoms: _152  and  _154
REMARK   64  A    between atoms: _154  and  _155
REMARK   65  A    between atoms: _154  and  _157
REMARK   66  A    between atoms: _157  and  _158
REMARK   67  A    between atoms: _158  and  _160
REMARK   68  A    between atoms: _160  and  MN_338
REMARK   69  A    between atoms: _161  and  _163
REMARK   70  A    between atoms: _163  and  _164
REMARK   71  A    between atoms: _163  and  _166
REMARK   72  A    between atoms: _166  and  _167
REMARK   73  A    between atoms: _167  and  _168
REMARK   74  A    between atoms: _171  and  _173
REMARK   75  A    between atoms: _173  and  _174
REMARK   76  A    between atoms: _173  and  _176
REMARK   77  A    between atoms: _176  and  _177
REMARK   78  A    between atoms: _177  and  _178
REMARK   79  A    between atoms: _178  and  _180
REMARK   80  A    between atoms: _180  and  MN_338
REMARK   81  A    between atoms: _181  and  _183
REMARK   82  A    between atoms: _183  and  _184
REMARK   83  A    between atoms: _183  and  _186
REMARK   84  A    between atoms: _186  and  _187
REMARK   85  A    between atoms: _187  and  _189
REMARK   86  A    between atoms: _189  and  MN_338
REMARK   87  A    between atoms: _190  and  _192
REMARK   88  A    between atoms: _192  and  _193
REMARK   89  A    between atoms: _192  and  _195
REMARK   90  A    between atoms: _195  and  _196
REMARK   91  A    between atoms: _199  and  _201
REMARK   92  A    between atoms: _201  and  _202
REMARK   93  A    between atoms: _201  and  _204
REMARK   94  A    between atoms: _204  and  _205
REMARK   95  A    between atoms: _208  and  _210
REMARK   96  A    between atoms: _210  and  _211
REMARK   97  A    between atoms: _210  and  _213
REMARK   98  A    between atoms: _213  and  _214
REMARK   99  A    between atoms: _214  and  _215
REMARK  100  A    between atoms: _215  and  _216
REMARK  101  A    between atoms: _216  and  _217
REMARK  102  A    between atoms: _221  and  _223
REMARK  103  A    between atoms: _223  and  _224
REMARK  104  A    between atoms: _223  and  _226
REMARK  105  A    between atoms: _226  and  _227
REMARK  106  A    between atoms: _232  and  _234
REMARK  107  A    between atoms: _234  and  _235
REMARK  108  A    between atoms: _234  and  _237
REMARK  109  A    between atoms: _237  and  _238
REMARK  110  A    between atoms: _238  and  _239
REMARK  111  A    between atoms: _244  and  _246
REMARK  112  A    between atoms: _246  and  _247
REMARK  113  A    between atoms: _246  and  _249
REMARK  114  A    between atoms: _249  and  _250
REMARK  115  A    between atoms: _252  and  _254
REMARK  116  A    between atoms: _254  and  _255
REMARK  117  A    between atoms: _254  and  _257
REMARK  118  A    between atoms: _257  and  _258
REMARK  119  A    between atoms: _263  and  _265
REMARK  120  A    between atoms: _265  and  _266
REMARK  121  A    between atoms: _265  and  _268
REMARK  122  A    between atoms: _268  and  _269
REMARK  123  A    between atoms: _269  and  _270
REMARK  124  A    between atoms: _270  and  _271
REMARK  125  A    between atoms: _280  and  _282
REMARK  126  A    between atoms: _282  and  _283
REMARK  127  A    between atoms: _282  and  _285
REMARK  128  A    between atoms: _285  and  _286
REMARK  129  A    between atoms: _288  and  _290
REMARK  130  A    between atoms: _290  and  _291
REMARK  131  A    between atoms: _293  and  _295
REMARK  132  A    between atoms: _295  and  _296
REMARK  133  A    between atoms: _295  and  _298
REMARK  134  A    between atoms: _298  and  _299
REMARK  135  A    between atoms: _299  and  _300
REMARK  136  A    between atoms: _303  and  _305
REMARK  137  A    between atoms: _305  and  _306
REMARK  138  A    between atoms: _305  and  _308
REMARK  139  A    between atoms: _308  and  _309
REMARK  140  A    between atoms: _309  and  _310
REMARK  141  A    between atoms: _310  and  _311
REMARK  142  A    between atoms: _311  and  _312
REMARK  143  A    between atoms: _316  and  _318
REMARK  144  A    between atoms: _318  and  _319
REMARK  145  A    between atoms: _321  and  _323
REMARK  146  A    between atoms: _323  and  _324
REMARK  147  A    between atoms: _323  and  _326
REMARK  148  A    between atoms: _326  and  _327
REMARK  149  A    between atoms: _327  and  _328
REMARK  150  A    between atoms: _328  and  _329
REMARK                            x       y       z     vdW  Elec       q    Type
REMARK                         _______ _______ _______ _____ _____    ______ ____
ROOT
ATOM      1  CA  ARG A   3      29.621  66.260  10.384  0.00  0.00    +0.149 C 
ENDROOT
BRANCH   1   2
ATOM      2  C   ARG A   3      30.849  66.677   9.591  0.00  0.00    +0.241 C 
ATOM      3  N   SER A   4      31.759  67.448  10.186  0.00  0.00    -0.295 N 
ATOM      4  H   SER A   4      31.630  67.736  11.177  0.00  0.00    +0.150 HD
ATOM      5  O   ARG A   3      30.943  66.342   8.409  0.00  0.00    -0.273 OA
BRANCH   3   6
ATOM      6  CA  SER A   4      32.945  67.890   9.439  0.00  0.00    +0.178 C 
BRANCH   6   7
ATOM      7  C   SER A   4      33.741  66.646   9.045  0.00  0.00    +0.243 C 
ATOM      8  N   GLY A   5      33.887  65.743  10.008  0.00  0.00    -0.295 N 
ATOM      9  H   GLY A   5      33.506  65.949  10.953  0.00  0.00    +0.150 HD
ATOM     10  O   SER A   4      34.196  66.518   7.907  0.00  0.00    -0.273 OA
BRANCH   8  11
ATOM     11  CA  GLY A   5      34.559  64.482   9.784  0.00  0.00    +0.176 C 
BRANCH  11  12
ATOM     12  C   GLY A   5      33.515  63.421   9.436  0.00  0.00    +0.243 C 
ATOM     13  O   GLY A   5      32.888  62.839  10.312  0.00  0.00    -0.273 OA
ATOM     14  N   GLU A   6      33.302  63.209   8.149  0.00  0.00    -0.298 N 
ATOM     15  H   GLU A   6      33.842  63.767   7.457  0.00  0.00    +0.150 HD
BRANCH  14  16
ATOM     16  CA  GLU A   6      32.347  62.232   7.658  0.00  0.00    +0.137 C 
BRANCH  16  17
ATOM     17  C   GLU A   6      33.029  60.923   7.240  0.00  0.00    +0.227 C 
ATOM     18  O   GLU A   6      34.232  60.757   7.417  0.00  0.00    -0.286 OA
ENDBRANCH  16  17
BRANCH  16  19
ATOM     19  CB  GLU A   6      31.611  62.832   6.463  0.00  0.00    +0.039 C 
BRANCH  19  20
ATOM     20  CG  GLU A   6      30.296  63.485   6.839  0.00  0.00    +0.116 C 
BRANCH  20  21
ATOM     21  CD  GLU A   6      29.393  62.537   7.590  0.00  0.00    +0.365 C 
ATOM     22  OE2 GLU A   6      28.926  62.907   8.672  0.00  0.00    -0.246 OA
ATOM     23  OE1 GLU A   6      29.180  61.398   7.124  0.00  0.00    -0.246 OA
ENDBRANCH  20  21
ENDBRANCH  19  20
ENDBRANCH  16  19
ENDBRANCH  14  16
ENDBRANCH  11  12
ENDBRANCH   8  11
ENDBRANCH   6   7
BRANCH   6  24
ATOM     24  CB  SER A   4      33.797  68.850  10.267  0.00  0.00    +0.166 C 
BRANCH  24  25
ATOM     25  OG  SER A   4      34.182  68.255  11.495  0.00  0.00    -0.380 OA
ATOM     26  H   SER A   4      33.373  68.019  12.014  0.00  0.00    +0.211 HD
ENDBRANCH  24  25
ENDBRANCH   6  24
ENDBRANCH   3   6
ENDBRANCH   1   2
BRANCH   1  29
ATOM     27  C   HIS A   2      27.467  66.161   9.267  0.00  0.00    +0.241 C 
ATOM     28  O   HIS A   2      27.016  67.016  10.014  0.00  0.00    -0.273 OA
ATOM     29  N   ARG A   3      28.701  65.698   9.390  0.00  0.00    -0.297 N 
ATOM     30  H   ARG A   3      29.022  64.925   8.773  0.00  0.00    +0.150 HD
BRANCH  27  31
ATOM     31  CA  HIS A   2      26.595  65.585   8.169  0.00  0.00    +0.155 C 
BRANCH  31  34
ATOM     32  C   SER A   1      24.406  66.270   9.010  0.00  0.00    +0.241 C 
ATOM     33  O   SER A   1      24.361  65.372   9.849  0.00  0.00    -0.274 OA
ATOM     34  N   HIS A   2      25.430  66.444   8.183  0.00  0.00    -0.297 N 
ATOM     35  H   HIS A   2      25.393  67.237   7.512  0.00  0.00    +0.150 HD
BRANCH  32  36
ATOM     36  CA  SER A   1      23.302  67.338   8.903  0.00  0.00    +0.174 C 
BRANCH  36  37
ATOM     37  N   SER A   1      21.934  66.907   9.116  0.00  0.00    -0.236 NA
ATOM     38  H   SER A   1      21.684  66.411   9.995  0.00  0.00    +0.142 HD
ENDBRANCH  36  37
BRANCH  36  39
ATOM     39  CB  SER A   1      23.641  68.425   9.894  0.00  0.00    +0.163 C 
BRANCH  39  40
ATOM     40  OG  SER A   1      24.905  68.984   9.596  0.00  0.00    -0.380 OA
ATOM     41  H   SER A   1      25.596  68.277   9.642  0.00  0.00    +0.211 HD
ENDBRANCH  39  40
ENDBRANCH  36  39
ENDBRANCH  32  36
ENDBRANCH  31  34
BRANCH  31  42
ATOM     42  CB  HIS A   2      27.298  65.729   6.823  0.00  0.00    +0.076 C 
BRANCH  42  43
ATOM     43  CG  HIS A   2      27.740  67.129   6.517  0.00  0.00    +0.082 A 
ATOM     44  ND1 HIS A   2      27.339  68.222   7.254  0.00  0.00    -0.227 NA
ATOM     45  CE1 HIS A   2      27.898  69.315   6.760  0.00  0.00    +0.199 A 
ATOM     46  NE2 HIS A   2      28.640  68.968   5.728  0.00  0.00    -0.221 NA
ATOM     47  CD2 HIS A   2      28.563  67.607   5.555  0.00  0.00    +0.115 A 
ENDBRANCH  42  43
ENDBRANCH  31  42
ENDBRANCH  27  31
ENDBRANCH   1  29
BRANCH   1  48
ATOM     48  CB  ARG A   3      29.976  65.254  11.461  0.00  0.00    +0.033 C 
BRANCH  48  49
ATOM     49  CG  ARG A   3      28.935  65.133  12.531  0.00  0.00    +0.045 C 
BRANCH  49  50
ATOM     50  CD  ARG A   3      28.820  66.423  13.337  0.00  0.00    +0.174 C 
BRANCH  50  51
ATOM     51  NE  ARG A   3      28.441  66.138  14.716  0.00  0.00    -0.265 N 
ATOM     52  CZ  ARG A   3      29.066  66.612  15.791  0.00  0.00    +0.342 C 
ATOM     53  NH2 ARG A   3      28.646  66.270  17.005  0.00  0.00    -0.292 N 
ATOM     54 HH21 ARG A   3      29.133  66.639  17.847  0.00  0.00    +0.255 HD
ATOM     55 HH22 ARG A   3      27.831  65.633  17.113  0.00  0.00    +0.255 HD
ATOM     56  NH1 ARG A   3      30.066  67.474  15.666  0.00  0.00    -0.292 N 
ATOM     57 HH11 ARG A   3      30.548  67.838  16.513  0.00  0.00    +0.255 HD
ATOM     58 HH12 ARG A   3      30.369  67.786  14.721  0.00  0.00    +0.255 HD
ATOM     59  HE  ARG A   3      27.621  65.518  14.871  0.00  0.00    +0.259 HD
ENDBRANCH  50  51
ENDBRANCH  49  50
ENDBRANCH  48  49
ENDBRANCH   1  48
TORSDOF 25
REMARK  Name = ../refined-set-2016/1pdz/1pdz_pocket.pdb
REMARK  150 active torsions:
REMARK  status: ('A' for Active; 'I' for Inactive)
REMARK    1  A    between atoms: _1  and  _3
REMARK    2  A    between atoms: _3  and  _4
REMARK    3  A    between atoms: _3  and  _6
REMARK    4  A    between atoms: _6  and  _7
REMARK    5  A    between atoms: _7  and  _8
REMARK    6  A    between atoms: _8  and  _9
REMARK    7  A    between atoms: _19  and  _20
REMARK    8  A    between atoms: _25  and  _27
REMARK    9  A    between atoms: _27  and  _28
REMARK   10  A    between atoms: _27  and  _30
REMARK   11  A    between atoms: _30  and  _31
REMARK   12  A    between atoms: _33  and  _35
REMARK   13  A    between atoms: _35  and  _36
REMARK   14  A    between atoms: _38  and  _40
REMARK   15  A    between atoms: _40  and  _41
REMARK   16  A    between atoms: _44  and  _46
REMARK   17  A    between atoms: _46  and  _47
REMARK   18  A    between atoms: _46  and  _49
REMARK   19  A    between atoms: _49  and  _50
REMARK   20  A    between atoms: _50  and  _51
REMARK   21  A    between atoms: _54  and  _56
REMARK   22  A    between atoms: _56  and  _57
REMARK   23  A    between atoms: _56  and  _59
REMARK   24  A    between atoms: _59  and  _60
REMARK   25  A    between atoms: _60  and  _61
REMARK   26  A    between atoms: _64  and  _66
REMARK   27  A    between atoms: _66  and  _67
REMARK   28  A    between atoms: _66  and  _69
REMARK   29  A    between atoms: _69  and  _70
REMARK   30  A    between atoms: _70  and  _71
REMARK   31  A    between atoms: _71  and  _72
REMARK   32  A    between atoms: _81  and  _83
REMARK   33  A    between atoms: _83  and  _84
REMARK   34  A    between atoms: _83  and  _86
REMARK   35  A    between atoms: _86  and  _87
REMARK   36  A    between atoms: _92  and  _94
REMARK   37  A    between atoms: _94  and  _95
REMARK   38  A    between atoms: _94  and  _97
REMARK   39  A    between atoms: _97  and  _98
REMARK   40  A    between atoms: _100  and  _102
REMARK   41  A    between atoms: _102  and  _103
REMARK   42  A    between atoms: _102  and  _105
REMARK   43  A    between atoms: _105  and  _106
REMARK   44  A    between atoms: _111  and  _113
REMARK   45  A    between atoms: _113  and  _114
REMARK   46  A    between atoms: _113  and  _116
REMARK   47  A    between atoms: _116  and  _117
REMARK   48  A    between atoms: _117  and  _118
REMARK   49  A    between atoms: _123  and  _125
REMARK   50  A    between atoms: _125  and  _126
REMARK   51  A    between atoms: _125  and  _128
REMARK   52  A    between atoms: _128  and  _129
REMARK   53  A    between atoms: _129  and  _130
REMARK   54  A    between atoms: _133  and  _135
REMARK   55  A    between atoms: _135  and  _136
REMARK   56  A    between atoms: _135  and  _138
REMARK   57  A    between atoms: _138  and  _139
REMARK   58  A    between atoms: _142  and  _144
REMARK   59  A    between atoms: _144  and  _145
REMARK   60  A    between atoms: _144  and  _147
REMARK   61  A    between atoms: _147  and  _148
REMARK   62  A    between atoms: _148  and  _149
REMARK   63  A    between atoms: _152  and  _154
REMARK   64  A    between atoms: _154  and  _155
REMARK   65  A    between atoms: _154  and  _157
REMARK   66  A    between atoms: _157  and  _158
REMARK   67  A    between atoms: _158  and  _160
REMARK   68  A    between atoms: _160  and  MN_338
REMARK   69  A    between atoms: _161  and  _163
REMARK   70  A    between atoms: _163  and  _164
REMARK   71  A    between atoms: _163  and  _166
REMARK   72  A    between atoms: _166  and  _167
REMARK   73  A    between atoms: _167  and  _168
REMARK   74  A    between atoms: _171  and  _173
REMARK   75  A    between atoms: _173  and  _174
REMARK   76  A    between atoms: _173  and  _176
REMARK   77  A    between atoms: _176  and  _177
REMARK   78  A    between atoms: _177  and  _178
REMARK   79  A    between atoms: _178  and  _180
REMARK   80  A    between atoms: _180  and  MN_338
REMARK   81  A    between atoms: _181  and  _183
REMARK   82  A    between atoms: _183  and  _184
REMARK   83  A    between atoms: _183  and  _186
REMARK   84  A    between atoms: _186  and  _187
REMARK   85  A    between atoms: _187  and  _189
REMARK   86  A    between atoms: _189  and  MN_338
REMARK   87  A    between atoms: _190  and  _192
REMARK   88  A    between atoms: _192  and  _193
REMARK   89  A    between atoms: _192  and  _195
REMARK   90  A    between atoms: _195  and  _196
REMARK   91  A    between atoms: _199  and  _201
REMARK   92  A    between atoms: _201  and  _202
REMARK   93  A    between atoms: _201  and  _204
REMARK   94  A    between atoms: _204  and  _205
REMARK   95  A    between atoms: _208  and  _210
REMARK   96  A    between atoms: _210  and  _211
REMARK   97  A    between atoms: _210  and  _213
REMARK   98  A    between atoms: _213  and  _214
REMARK   99  A    between atoms: _214  and  _215
REMARK  100  A    between atoms: _215  and  _216
REMARK  101  A    between atoms: _216  and  _217
REMARK  102  A    between atoms: _221  and  _223
REMARK  103  A    between atoms: _223  and  _224
REMARK  104  A    between atoms: _223  and  _226
REMARK  105  A    between atoms: _226  and  _227
REMARK  106  A    between atoms: _232  and  _234
REMARK  107  A    between atoms: _234  and  _235
REMARK  108  A    between atoms: _234  and  _237
REMARK  109  A    between atoms: _237  and  _238
REMARK  110  A    between atoms: _238  and  _239
REMARK  111  A    between atoms: _244  and  _246
REMARK  112  A    between atoms: _246  and  _247
REMARK  113  A    between atoms: _246  and  _249
REMARK  114  A    between atoms: _249  and  _250
REMARK  115  A    between atoms: _252  and  _254
REMARK  116  A    between atoms: _254  and  _255
REMARK  117  A    between atoms: _254  and  _257
REMARK  118  A    between atoms: _257  and  _258
REMARK  119  A    between atoms: _263  and  _265
REMARK  120  A    between atoms: _265  and  _266
REMARK  121  A    between atoms: _265  and  _268
REMARK  122  A    between atoms: _268  and  _269
REMARK  123  A    between atoms: _269  and  _270
REMARK  124  A    between atoms: _270  and  _271
REMARK  125  A    between atoms: _280  and  _282
REMARK  126  A    between atoms: _282  and  _283
REMARK  127  A    between atoms: _282  and  _285
REMARK  128  A    between atoms: _285  and  _286
REMARK  129  A    between atoms: _288  and  _290
REMARK  130  A    between atoms: _290  and  _291
REMARK  131  A    between atoms: _293  and  _295
REMARK  132  A    between atoms: _295  and  _296
REMARK  133  A    between atoms: _295  and  _298
REMARK  134  A    between atoms: _298  and  _299
REMARK  135  A    between atoms: _299  and  _300
REMARK  136  A    between atoms: _303  and  _305
REMARK  137  A    between atoms: _305  and  _306
REMARK  138  A    between atoms: _305  and  _308
REMARK  139  A    between atoms: _308  and  _309
REMARK  140  A    between atoms: _309  and  _310
REMARK  141  A    between atoms: _310  and  _311
REMARK  142  A    between atoms: _311  and  _312
REMARK  143  A    between atoms: _316  and  _318
REMARK  144  A    between atoms: _318  and  _319
REMARK  145  A    between atoms: _321  and  _323
REMARK  146  A    between atoms: _323  and  _324
REMARK  147  A    between atoms: _323  and  _326
REMARK  148  A    between atoms: _326  and  _327
REMARK  149  A    between atoms: _327  and  _328
REMARK  150  A    between atoms: _328  and  _329
REMARK                            x       y       z     vdW  Elec       q    Type
REMARK                         _______ _______ _______ _____ _____    ______ ____
ROOT
ATOM      1  CG  LYS A   1      24.343  71.570   6.079  0.00  0.00    -0.000 C 
ENDROOT
BRANCH   1   2
ATOM      2  CB  LYS A   1      23.172  70.740   5.834  0.00  0.00    +0.025 C 
BRANCH   2   3
ATOM      3  CA  LYS A   1      23.180  69.830   4.619  0.00  0.00    +0.133 C 
BRANCH   3   4
ATOM      4  N   LYS A   1      21.966  69.057   4.710  0.00  0.00    -0.239 NA
ATOM      5  H   LYS A   1      21.811  68.483   5.563  0.00  0.00    +0.142 HD
ENDBRANCH   3   4
BRANCH   3   6
ATOM      6  C   LYS A   1      24.314  68.788   4.717  0.00  0.00    +0.224 C 
ATOM      7  O   LYS A   1      24.719  68.399   5.827  0.00  0.00    -0.287 OA
ENDBRANCH   3   6
ENDBRANCH   2   3
ENDBRANCH   1   2
BRANCH   1   8
ATOM      8  CD  LYS A   1      24.414  71.763   7.562  0.00  0.00    -0.024 C 
BRANCH   8   9
ATOM      9  CE  LYS A   1      25.206  72.981   7.863  0.00  0.00    -0.086 C 
BRANCH   9  10
ATOM     10  NZ  LYS A   1      25.494  73.020   9.290  0.00  0.00    +0.380 N 
ATOM     11  HZ1 LYS A   1      24.601  73.042   9.822  0.00  0.00    -0.089 HD
ATOM     12  HZ2 LYS A   1      26.037  72.174   9.556  0.00  0.00    -0.089 HD
ATOM     13  HZ3 LYS A   1      26.049  73.872   9.507  0.00  0.00    -0.089 HD
ENDBRANCH   9  10
ENDBRANCH   8   9
ENDBRANCH   1   8
TORSDOF 7
REMARK  Name = ../refined-set-2016/1pdz/1pdz_pocket.pdb
REMARK  150 active torsions:
REMARK  status: ('A' for Active; 'I' for Inactive)
REMARK    1  A    between atoms: _1  and  _3
REMARK    2  A    between atoms: _3  and  _4
REMARK    3  A    between atoms: _3  and  _6
REMARK    4  A    between atoms: _6  and  _7
REMARK    5  A    between atoms: _7  and  _8
REMARK    6  A    between atoms: _8  and  _9
REMARK    7  A    between atoms: _19  and  _20
REMARK    8  A    between atoms: _25  and  _27
REMARK    9  A    between atoms: _27  and  _28
REMARK   10  A    between atoms: _27  and  _30
REMARK   11  A    between atoms: _30  and  _31
REMARK   12  A    between atoms: _33  and  _35
REMARK   13  A    between atoms: _35  and  _36
REMARK   14  A    between atoms: _38  and  _40
REMARK   15  A    between atoms: _40  and  _41
REMARK   16  A    between atoms: _44  and  _46
REMARK   17  A    between atoms: _46  and  _47
REMARK   18  A    between atoms: _46  and  _49
REMARK   19  A    between atoms: _49  and  _50
REMARK   20  A    between atoms: _50  and  _51
REMARK   21  A    between atoms: _54  and  _56
REMARK   22  A    between atoms: _56  and  _57
REMARK   23  A    between atoms: _56  and  _59
REMARK   24  A    between atoms: _59  and  _60
REMARK   25  A    between atoms: _60  and  _61
REMARK   26  A    between atoms: _64  and  _66
REMARK   27  A    between atoms: _66  and  _67
REMARK   28  A    between atoms: _66  and  _69
REMARK   29  A    between atoms: _69  and  _70
REMARK   30  A    between atoms: _70  and  _71
REMARK   31  A    between atoms: _71  and  _72
REMARK   32  A    between atoms: _81  and  _83
REMARK   33  A    between atoms: _83  and  _84
REMARK   34  A    between atoms: _83  and  _86
REMARK   35  A    between atoms: _86  and  _87
REMARK   36  A    between atoms: _92  and  _94
REMARK   37  A    between atoms: _94  and  _95
REMARK   38  A    between atoms: _94  and  _97
REMARK   39  A    between atoms: _97  and  _98
REMARK   40  A    between atoms: _100  and  _102
REMARK   41  A    between atoms: _102  and  _103
REMARK   42  A    between atoms: _102  and  _105
REMARK   43  A    between atoms: _105  and  _106
REMARK   44  A    between atoms: _111  and  _113
REMARK   45  A    between atoms: _113  and  _114
REMARK   46  A    between atoms: _113  and  _116
REMARK   47  A    between atoms: _116  and  _117
REMARK   48  A    between atoms: _117  and  _118
REMARK   49  A    between atoms: _123  and  _125
REMARK   50  A    between atoms: _125  and  _126
REMARK   51  A    between atoms: _125  and  _128
REMARK   52  A    between atoms: _128  and  _129
REMARK   53  A    between atoms: _129  and  _130
REMARK   54  A    between atoms: _133  and  _135
REMARK   55  A    between atoms: _135  and  _136
REMARK   56  A    between atoms: _135  and  _138
REMARK   57  A    between atoms: _138  and  _139
REMARK   58  A    between atoms: _142  and  _144
REMARK   59  A    between atoms: _144  and  _145
REMARK   60  A    between atoms: _144  and  _147
REMARK   61  A    between atoms: _147  and  _148
REMARK   62  A    between atoms: _148  and  _149
REMARK   63  A    between atoms: _152  and  _154
REMARK   64  A    between atoms: _154  and  _155
REMARK   65  A    between atoms: _154  and  _157
REMARK   66  A    between atoms: _157  and  _158
REMARK   67  A    between atoms: _158  and  _160
REMARK   68  A    between atoms: _160  and  MN_338
REMARK   69  A    between atoms: _161  and  _163
REMARK   70  A    between atoms: _163  and  _164
REMARK   71  A    between atoms: _163  and  _166
REMARK   72  A    between atoms: _166  and  _167
REMARK   73  A    between atoms: _167  and  _168
REMARK   74  A    between atoms: _171  and  _173
REMARK   75  A    between atoms: _173  and  _174
REMARK   76  A    between atoms: _173  and  _176
REMARK   77  A    between atoms: _176  and  _177
REMARK   78  A    between atoms: _177  and  _178
REMARK   79  A    between atoms: _178  and  _180
REMARK   80  A    between atoms: _180  and  MN_338
REMARK   81  A    between atoms: _181  and  _183
REMARK   82  A    between atoms: _183  and  _184
REMARK   83  A    between atoms: _183  and  _186
REMARK   84  A    between atoms: _186  and  _187
REMARK   85  A    between atoms: _187  and  _189
REMARK   86  A    between atoms: _189  and  MN_338
REMARK   87  A    between atoms: _190  and  _192
REMARK   88  A    between atoms: _192  and  _193
REMARK   89  A    between atoms: _192  and  _195
REMARK   90  A    between atoms: _195  and  _196
REMARK   91  A    between atoms: _199  and  _201
REMARK   92  A    between atoms: _201  and  _202
REMARK   93  A    between atoms: _201  and  _204
REMARK   94  A    between atoms: _204  and  _205
REMARK   95  A    between atoms: _208  and  _210
REMARK   96  A    between atoms: _210  and  _211
REMARK   97  A    between atoms: _210  and  _213
REMARK   98  A    between atoms: _213  and  _214
REMARK   99  A    between atoms: _214  and  _215
REMARK  100  A    between atoms: _215  and  _216
REMARK  101  A    between atoms: _216  and  _217
REMARK  102  A    between atoms: _221  and  _223
REMARK  103  A    between atoms: _223  and  _224
REMARK  104  A    between atoms: _223  and  _226
REMARK  105  A    between atoms: _226  and  _227
REMARK  106  A    between atoms: _232  and  _234
REMARK  107  A    between atoms: _234  and  _235
REMARK  108  A    between atoms: _234  and  _237
REMARK  109  A    between atoms: _237  and  _238
REMARK  110  A    between atoms: _238  and  _239
REMARK  111  A    between atoms: _244  and  _246
REMARK  112  A    between atoms: _246  and  _247
REMARK  113  A    between atoms: _246  and  _249
REMARK  114  A    between atoms: _249  and  _250
REMARK  115  A    between atoms: _252  and  _254
REMARK  116  A    between atoms: _254  and  _255
REMARK  117  A    between atoms: _254  and  _257
REMARK  118  A    between atoms: _257  and  _258
REMARK  119  A    between atoms: _263  and  _265
REMARK  120  A    between atoms: _265  and  _266
REMARK  121  A    between atoms: _265  and  _268
REMARK  122  A    between atoms: _268  and  _269
REMARK  123  A    between atoms: _269  and  _270
REMARK  124  A    between atoms: _270  and  _271
REMARK  125  A    between atoms: _280  and  _282
REMARK  126  A    between atoms: _282  and  _283
REMARK  127  A    between atoms: _282  and  _285
REMARK  128  A    between atoms: _285  and  _286
REMARK  129  A    between atoms: _288  and  _290
REMARK  130  A    between atoms: _290  and  _291
REMARK  131  A    between atoms: _293  and  _295
REMARK  132  A    between atoms: _295  and  _296
REMARK  133  A    between atoms: _295  and  _298
REMARK  134  A    between atoms: _298  and  _299
REMARK  135  A    between atoms: _299  and  _300
REMARK  136  A    between atoms: _303  and  _305
REMARK  137  A    between atoms: _305  and  _306
REMARK  138  A    between atoms: _305  and  _308
REMARK  139  A    between atoms: _308  and  _309
REMARK  140  A    between atoms: _309  and  _310
REMARK  141  A    between atoms: _310  and  _311
REMARK  142  A    between atoms: _311  and  _312
REMARK  143  A    between atoms: _316  and  _318
REMARK  144  A    between atoms: _318  and  _319
REMARK  145  A    between atoms: _321  and  _323
REMARK  146  A    between atoms: _323  and  _324
REMARK  147  A    between atoms: _323  and  _326
REMARK  148  A    between atoms: _326  and  _327
REMARK  149  A    between atoms: _327  and  _328
REMARK  150  A    between atoms: _328  and  _329
REMARK                            x       y       z     vdW  Elec       q    Type
REMARK                         _______ _______ _______ _____ _____    ______ ____
ROOT
ATOM      1  CA  GLY A   1      28.720  69.347   2.078  0.00  0.00    +0.000 C 
ENDROOT
BRANCH   1   2
ATOM      2  N   GLY A   1      27.524  68.892   2.763  0.00  0.00    +0.000 NA
ATOM      3  H   GLY A   1      26.918  69.599   3.227  0.00  0.00    +0.000 HD
ENDBRANCH   1   2
BRANCH   1   4
ATOM      4  C   GLY A   1      28.555  69.866   0.666  0.00  0.00    +0.000 C 
ATOM      5  O   GLY A   1      27.472  69.849   0.098  0.00  0.00    +0.000 OA
ENDBRANCH   1   4
TORSDOF 2
REMARK  Name = ../refined-set-2016/1pdz/1pdz_pocket.pdb
REMARK  150 active torsions:
REMARK  status: ('A' for Active; 'I' for Inactive)
REMARK    1  A    between atoms: _1  and  _3
REMARK    2  A    between atoms: _3  and  _4
REMARK    3  A    between atoms: _3  and  _6
REMARK    4  A    between atoms: _6  and  _7
REMARK    5  A    between atoms: _7  and  _8
REMARK    6  A    between atoms: _8  and  _9
REMARK    7  A    between atoms: _19  and  _20
REMARK    8  A    between atoms: _25  and  _27
REMARK    9  A    between atoms: _27  and  _28
REMARK   10  A    between atoms: _27  and  _30
REMARK   11  A    between atoms: _30  and  _31
REMARK   12  A    between atoms: _33  and  _35
REMARK   13  A    between atoms: _35  and  _36
REMARK   14  A    between atoms: _38  and  _40
REMARK   15  A    between atoms: _40  and  _41
REMARK   16  A    between atoms: _44  and  _46
REMARK   17  A    between atoms: _46  and  _47
REMARK   18  A    between atoms: _46  and  _49
REMARK   19  A    between atoms: _49  and  _50
REMARK   20  A    between atoms: _50  and  _51
REMARK   21  A    between atoms: _54  and  _56
REMARK   22  A    between atoms: _56  and  _57
REMARK   23  A    between atoms: _56  and  _59
REMARK   24  A    between atoms: _59  and  _60
REMARK   25  A    between atoms: _60  and  _61
REMARK   26  A    between atoms: _64  and  _66
REMARK   27  A    between atoms: _66  and  _67
REMARK   28  A    between atoms: _66  and  _69
REMARK   29  A    between atoms: _69  and  _70
REMARK   30  A    between atoms: _70  and  _71
REMARK   31  A    between atoms: _71  and  _72
REMARK   32  A    between atoms: _81  and  _83
REMARK   33  A    between atoms: _83  and  _84
REMARK   34  A    between atoms: _83  and  _86
REMARK   35  A    between atoms: _86  and  _87
REMARK   36  A    between atoms: _92  and  _94
REMARK   37  A    between atoms: _94  and  _95
REMARK   38  A    between atoms: _94  and  _97
REMARK   39  A    between atoms: _97  and  _98
REMARK   40  A    between atoms: _100  and  _102
REMARK   41  A    between atoms: _102  and  _103
REMARK   42  A    between atoms: _102  and  _105
REMARK   43  A    between atoms: _105  and  _106
REMARK   44  A    between atoms: _111  and  _113
REMARK   45  A    between atoms: _113  and  _114
REMARK   46  A    between atoms: _113  and  _116
REMARK   47  A    between atoms: _116  and  _117
REMARK   48  A    between atoms: _117  and  _118
REMARK   49  A    between atoms: _123  and  _125
REMARK   50  A    between atoms: _125  and  _126
REMARK   51  A    between atoms: _125  and  _128
REMARK   52  A    between atoms: _128  and  _129
REMARK   53  A    between atoms: _129  and  _130
REMARK   54  A    between atoms: _133  and  _135
REMARK   55  A    between atoms: _135  and  _136
REMARK   56  A    between atoms: _135  and  _138
REMARK   57  A    between atoms: _138  and  _139
REMARK   58  A    between atoms: _142  and  _144
REMARK   59  A    between atoms: _144  and  _145
REMARK   60  A    between atoms: _144  and  _147
REMARK   61  A    between atoms: _147  and  _148
REMARK   62  A    between atoms: _148  and  _149
REMARK   63  A    between atoms: _152  and  _154
REMARK   64  A    between atoms: _154  and  _155
REMARK   65  A    between atoms: _154  and  _157
REMARK   66  A    between atoms: _157  and  _158
REMARK   67  A    between atoms: _158  and  _160
REMARK   68  A    between atoms: _160  and  MN_338
REMARK   69  A    between atoms: _161  and  _163
REMARK   70  A    between atoms: _163  and  _164
REMARK   71  A    between atoms: _163  and  _166
REMARK   72  A    between atoms: _166  and  _167
REMARK   73  A    between atoms: _167  and  _168
REMARK   74  A    between atoms: _171  and  _173
REMARK   75  A    between atoms: _173  and  _174
REMARK   76  A    between atoms: _173  and  _176
REMARK   77  A    between atoms: _176  and  _177
REMARK   78  A    between atoms: _177  and  _178
REMARK   79  A    between atoms: _178  and  _180
REMARK   80  A    between atoms: _180  and  MN_338
REMARK   81  A    between atoms: _181  and  _183
REMARK   82  A    between atoms: _183  and  _184
REMARK   83  A    between atoms: _183  and  _186
REMARK   84  A    between atoms: _186  and  _187
REMARK   85  A    between atoms: _187  and  _189
REMARK   86  A    between atoms: _189  and  MN_338
REMARK   87  A    between atoms: _190  and  _192
REMARK   88  A    between atoms: _192  and  _193
REMARK   89  A    between atoms: _192  and  _195
REMARK   90  A    between atoms: _195  and  _196
REMARK   91  A    between atoms: _199  and  _201
REMARK   92  A    between atoms: _201  and  _202
REMARK   93  A    between atoms: _201  and  _204
REMARK   94  A    between atoms: _204  and  _205
REMARK   95  A    between atoms: _208  and  _210
REMARK   96  A    between atoms: _210  and  _211
REMARK   97  A    between atoms: _210  and  _213
REMARK   98  A    between atoms: _213  and  _214
REMARK   99  A    between atoms: _214  and  _215
REMARK  100  A    between atoms: _215  and  _216
REMARK  101  A    between atoms: _216  and  _217
REMARK  102  A    between atoms: _221  and  _223
REMARK  103  A    between atoms: _223  and  _224
REMARK  104  A    between atoms: _223  and  _226
REMARK  105  A    between atoms: _226  and  _227
REMARK  106  A    between atoms: _232  and  _234
REMARK  107  A    between atoms: _234  and  _235
REMARK  108  A    between atoms: _234  and  _237
REMARK  109  A    between atoms: _237  and  _238
REMARK  110  A    between atoms: _238  and  _239
REMARK  111  A    between atoms: _244  and  _246
REMARK  112  A    between atoms: _246  and  _247
REMARK  113  A    between atoms: _246  and  _249
REMARK  114  A    between atoms: _249  and  _250
REMARK  115  A    between atoms: _252  and  _254
REMARK  116  A    between atoms: _254  and  _255
REMARK  117  A    between atoms: _254  and  _257
REMARK  118  A    between atoms: _257  and  _258
REMARK  119  A    between atoms: _263  and  _265
REMARK  120  A    between atoms: _265  and  _266
REMARK  121  A    between atoms: _265  and  _268
REMARK  122  A    between atoms: _268  and  _269
REMARK  123  A    between atoms: _269  and  _270
REMARK  124  A    between atoms: _270  and  _271
REMARK  125  A    between atoms: _280  and  _282
REMARK  126  A    between atoms: _282  and  _283
REMARK  127  A    between atoms: _282  and  _285
REMARK  128  A    between atoms: _285  and  _286
REMARK  129  A    between atoms: _288  and  _290
REMARK  130  A    between atoms: _290  and  _291
REMARK  131  A    between atoms: _293  and  _295
REMARK  132  A    between atoms: _295  and  _296
REMARK  133  A    between atoms: _295  and  _298
REMARK  134  A    between atoms: _298  and  _299
REMARK  135  A    between atoms: _299  and  _300
REMARK  136  A    between atoms: _303  and  _305
REMARK  137  A    between atoms: _305  and  _306
REMARK  138  A    between atoms: _305  and  _308
REMARK  139  A    between atoms: _308  and  _309
REMARK  140  A    between atoms: _309  and  _310
REMARK  141  A    between atoms: _310  and  _311
REMARK  142  A    between atoms: _311  and  _312
REMARK  143  A    between atoms: _316  and  _318
REMARK  144  A    between atoms: _318  and  _319
REMARK  145  A    between atoms: _321  and  _323
REMARK  146  A    between atoms: _323  and  _324
REMARK  147  A    between atoms: _323  and  _326
REMARK  148  A    between atoms: _326  and  _327
REMARK  149  A    between atoms: _327  and  _328
REMARK  150  A    between atoms: _328  and  _329
REMARK                            x       y       z     vdW  Elec       q    Type
REMARK                         _______ _______ _______ _____ _____    ______ ____
ROOT
ATOM      1  NE  ARG A   1      31.407  66.444   3.797  0.00  0.00    +0.330 N 
ATOM      2  CZ  ARG A   1      32.141  66.418   4.898  0.00  0.00    +0.000 C 
ATOM      3  NH2 ARG A   1      31.549  66.443   6.081  0.00  0.00    +0.330 N 
ATOM      4 HH21 ARG A   1      32.121  66.423   6.949  0.00  0.00    +0.000 HD
ATOM      5 HH22 ARG A   1      30.512  66.483   6.143  0.00  0.00    +0.000 HD
ATOM      6  NH1 ARG A   1      33.448  66.393   4.840  0.00  0.00    +0.330 N 
ATOM      7 HH11 ARG A   1      34.007  66.373   5.717  0.00  0.00    +0.000 HD
ATOM      8 HH12 ARG A   1      33.928  66.393   3.917  0.00  0.00    +0.000 HD
ATOM      9  HE  ARG A   1      30.376  66.504   3.920  0.00  0.00    +0.000 HD
ENDROOT
BRANCH   1  10
ATOM     10  CD  ARG A   1      31.905  66.397   2.430  0.00  0.00    +0.000 C 
BRANCH  10  11
ATOM     11  CG  ARG A   1      30.714  66.649   1.521  0.00  0.00    +0.000 C 
BRANCH  11  12
ATOM     12  CB  ARG A   1      30.448  65.677   0.383  0.00  0.00    +0.000 C 
BRANCH  12  13
ATOM     13  CA  ARG A   1      29.918  64.293   0.793  0.00  0.00    +0.000 C 
BRANCH  13  14
ATOM     14  N   ARG A   1      31.016  63.358   0.999  0.00  0.00    +0.000 NA
ATOM     15  H   ARG A   1      31.841  63.437   0.371  0.00  0.00    +0.000 HD
ENDBRANCH  13  14
BRANCH  13  16
ATOM     16  C   ARG A   1      29.105  63.743  -0.346  0.00  0.00    +0.000 C 
ATOM     17  O   ARG A   1      27.907  63.559  -0.217  0.00  0.00    +0.000 OA
ENDBRANCH  13  16
ENDBRANCH  12  13
ENDBRANCH  11  12
ENDBRANCH  10  11
ENDBRANCH   1  10
TORSDOF 6
REMARK  Name = ../refined-set-2016/1pdz/1pdz_pocket.pdb
REMARK  150 active torsions:
REMARK  status: ('A' for Active; 'I' for Inactive)
REMARK    1  A    between atoms: _1  and  _3
REMARK    2  A    between atoms: _3  and  _4
REMARK    3  A    between atoms: _3  and  _6
REMARK    4  A    between atoms: _6  and  _7
REMARK    5  A    between atoms: _7  and  _8
REMARK    6  A    between atoms: _8  and  _9
REMARK    7  A    between atoms: _19  and  _20
REMARK    8  A    between atoms: _25  and  _27
REMARK    9  A    between atoms: _27  and  _28
REMARK   10  A    between atoms: _27  and  _30
REMARK   11  A    between atoms: _30  and  _31
REMARK   12  A    between atoms: _33  and  _35
REMARK   13  A    between atoms: _35  and  _36
REMARK   14  A    between atoms: _38  and  _40
REMARK   15  A    between atoms: _40  and  _41
REMARK   16  A    between atoms: _44  and  _46
REMARK   17  A    between atoms: _46  and  _47
REMARK   18  A    between atoms: _46  and  _49
REMARK   19  A    between atoms: _49  and  _50
REMARK   20  A    between atoms: _50  and  _51
REMARK   21  A    between atoms: _54  and  _56
REMARK   22  A    between atoms: _56  and  _57
REMARK   23  A    between atoms: _56  and  _59
REMARK   24  A    between atoms: _59  and  _60
REMARK   25  A    between atoms: _60  and  _61
REMARK   26  A    between atoms: _64  and  _66
REMARK   27  A    between atoms: _66  and  _67
REMARK   28  A    between atoms: _66  and  _69
REMARK   29  A    between atoms: _69  and  _70
REMARK   30  A    between atoms: _70  and  _71
REMARK   31  A    between atoms: _71  and  _72
REMARK   32  A    between atoms: _81  and  _83
REMARK   33  A    between atoms: _83  and  _84
REMARK   34  A    between atoms: _83  and  _86
REMARK   35  A    between atoms: _86  and  _87
REMARK   36  A    between atoms: _92  and  _94
REMARK   37  A    between atoms: _94  and  _95
REMARK   38  A    between atoms: _94  and  _97
REMARK   39  A    between atoms: _97  and  _98
REMARK   40  A    between atoms: _100  and  _102
REMARK   41  A    between atoms: _102  and  _103
REMARK   42  A    between atoms: _102  and  _105
REMARK   43  A    between atoms: _105  and  _106
REMARK   44  A    between atoms: _111  and  _113
REMARK   45  A    between atoms: _113  and  _114
REMARK   46  A    between atoms: _113  and  _116
REMARK   47  A    between atoms: _116  and  _117
REMARK   48  A    between atoms: _117  and  _118
REMARK   49  A    between atoms: _123  and  _125
REMARK   50  A    between atoms: _125  and  _126
REMARK   51  A    between atoms: _125  and  _128
REMARK   52  A    between atoms: _128  and  _129
REMARK   53  A    between atoms: _129  and  _130
REMARK   54  A    between atoms: _133  and  _135
REMARK   55  A    between atoms: _135  and  _136
REMARK   56  A    between atoms: _135  and  _138
REMARK   57  A    between atoms: _138  and  _139
REMARK   58  A    between atoms: _142  and  _144
REMARK   59  A    between atoms: _144  and  _145
REMARK   60  A    between atoms: _144  and  _147
REMARK   61  A    between atoms: _147  and  _148
REMARK   62  A    between atoms: _148  and  _149
REMARK   63  A    between atoms: _152  and  _154
REMARK   64  A    between atoms: _154  and  _155
REMARK   65  A    between atoms: _154  and  _157
REMARK   66  A    between atoms: _157  and  _158
REMARK   67  A    between atoms: _158  and  _160
REMARK   68  A    between atoms: _160  and  MN_338
REMARK   69  A    between atoms: _161  and  _163
REMARK   70  A    between atoms: _163  and  _164
REMARK   71  A    between atoms: _163  and  _166
REMARK   72  A    between atoms: _166  and  _167
REMARK   73  A    between atoms: _167  and  _168
REMARK   74  A    between atoms: _171  and  _173
REMARK   75  A    between atoms: _173  and  _174
REMARK   76  A    between atoms: _173  and  _176
REMARK   77  A    between atoms: _176  and  _177
REMARK   78  A    between atoms: _177  and  _178
REMARK   79  A    between atoms: _178  and  _180
REMARK   80  A    between atoms: _180  and  MN_338
REMARK   81  A    between atoms: _181  and  _183
REMARK   82  A    between atoms: _183  and  _184
REMARK   83  A    between atoms: _183  and  _186
REMARK   84  A    between atoms: _186  and  _187
REMARK   85  A    between atoms: _187  and  _189
REMARK   86  A    between atoms: _189  and  MN_338
REMARK   87  A    between atoms: _190  and  _192
REMARK   88  A    between atoms: _192  and  _193
REMARK   89  A    between atoms: _192  and  _195
REMARK   90  A    between atoms: _195  and  _196
REMARK   91  A    between atoms: _199  and  _201
REMARK   92  A    between atoms: _201  and  _202
REMARK   93  A    between atoms: _201  and  _204
REMARK   94  A    between atoms: _204  and  _205
REMARK   95  A    between atoms: _208  and  _210
REMARK   96  A    between atoms: _210  and  _211
REMARK   97  A    between atoms: _210  and  _213
REMARK   98  A    between atoms: _213  and  _214
REMARK   99  A    between atoms: _214  and  _215
REMARK  100  A    between atoms: _215  and  _216
REMARK  101  A    between atoms: _216  and  _217
REMARK  102  A    between atoms: _221  and  _223
REMARK  103  A    between atoms: _223  and  _224
REMARK  104  A    between atoms: _223  and  _226
REMARK  105  A    between atoms: _226  and  _227
REMARK  106  A    between atoms: _232  and  _234
REMARK  107  A    between atoms: _234  and  _235
REMARK  108  A    between atoms: _234  and  _237
REMARK  109  A    between atoms: _237  and  _238
REMARK  110  A    between atoms: _238  and  _239
REMARK  111  A    between atoms: _244  and  _246
REMARK  112  A    between atoms: _246  and  _247
REMARK  113  A    between atoms: _246  and  _249
REMARK  114  A    between atoms: _249  and  _250
REMARK  115  A    between atoms: _252  and  _254
REMARK  116  A    between atoms: _254  and  _255
REMARK  117  A    between atoms: _254  and  _257
REMARK  118  A    between atoms: _257  and  _258
REMARK  119  A    between atoms: _263  and  _265
REMARK  120  A    between atoms: _265  and  _266
REMARK  121  A    between atoms: _265  and  _268
REMARK  122  A    between atoms: _268  and  _269
REMARK  123  A    between atoms: _269  and  _270
REMARK  124  A    between atoms: _270  and  _271
REMARK  125  A    between atoms: _280  and  _282
REMARK  126  A    between atoms: _282  and  _283
REMARK  127  A    between atoms: _282  and  _285
REMARK  128  A    between atoms: _285  and  _286
REMARK  129  A    between atoms: _288  and  _290
REMARK  130  A    between atoms: _290  and  _291
REMARK  131  A    between atoms: _293  and  _295
REMARK  132  A    between atoms: _295  and  _296
REMARK  133  A    between atoms: _295  and  _298
REMARK  134  A    between atoms: _298  and  _299
REMARK  135  A    between atoms: _299  and  _300
REMARK  136  A    between atoms: _303  and  _305
REMARK  137  A    between atoms: _305  and  _306
REMARK  138  A    between atoms: _305  and  _308
REMARK  139  A    between atoms: _308  and  _309
REMARK  140  A    between atoms: _309  and  _310
REMARK  141  A    between atoms: _310  and  _311
REMARK  142  A    between atoms: _311  and  _312
REMARK  143  A    between atoms: _316  and  _318
REMARK  144  A    between atoms: _318  and  _319
REMARK  145  A    between atoms: _321  and  _323
REMARK  146  A    between atoms: _323  and  _324
REMARK  147  A    between atoms: _323  and  _326
REMARK  148  A    between atoms: _326  and  _327
REMARK  149  A    between atoms: _327  and  _328
REMARK  150  A    between atoms: _328  and  _329
REMARK                            x       y       z     vdW  Elec       q    Type
REMARK                         _______ _______ _______ _____ _____    ______ ____
ROOT
ATOM      1  O   HOH     1      28.413  71.692   8.519  0.00  0.00    +0.000 OA
ENDROOT
TORSDOF 0
REMARK  Name = ../refined-set-2016/1pdz/1pdz_pocket.pdb
REMARK  150 active torsions:
REMARK  status: ('A' for Active; 'I' for Inactive)
REMARK    1  A    between atoms: _1  and  _3
REMARK    2  A    between atoms: _3  and  _4
REMARK    3  A    between atoms: _3  and  _6
REMARK    4  A    between atoms: _6  and  _7
REMARK    5  A    between atoms: _7  and  _8
REMARK    6  A    between atoms: _8  and  _9
REMARK    7  A    between atoms: _19  and  _20
REMARK    8  A    between atoms: _25  and  _27
REMARK    9  A    between atoms: _27  and  _28
REMARK   10  A    between atoms: _27  and  _30
REMARK   11  A    between atoms: _30  and  _31
REMARK   12  A    between atoms: _33  and  _35
REMARK   13  A    between atoms: _35  and  _36
REMARK   14  A    between atoms: _38  and  _40
REMARK   15  A    between atoms: _40  and  _41
REMARK   16  A    between atoms: _44  and  _46
REMARK   17  A    between atoms: _46  and  _47
REMARK   18  A    between atoms: _46  and  _49
REMARK   19  A    between atoms: _49  and  _50
REMARK   20  A    between atoms: _50  and  _51
REMARK   21  A    between atoms: _54  and  _56
REMARK   22  A    between atoms: _56  and  _57
REMARK   23  A    between atoms: _56  and  _59
REMARK   24  A    between atoms: _59  and  _60
REMARK   25  A    between atoms: _60  and  _61
REMARK   26  A    between atoms: _64  and  _66
REMARK   27  A    between atoms: _66  and  _67
REMARK   28  A    between atoms: _66  and  _69
REMARK   29  A    between atoms: _69  and  _70
REMARK   30  A    between atoms: _70  and  _71
REMARK   31  A    between atoms: _71  and  _72
REMARK   32  A    between atoms: _81  and  _83
REMARK   33  A    between atoms: _83  and  _84
REMARK   34  A    between atoms: _83  and  _86
REMARK   35  A    between atoms: _86  and  _87
REMARK   36  A    between atoms: _92  and  _94
REMARK   37  A    between atoms: _94  and  _95
REMARK   38  A    between atoms: _94  and  _97
REMARK   39  A    between atoms: _97  and  _98
REMARK   40  A    between atoms: _100  and  _102
REMARK   41  A    between atoms: _102  and  _103
REMARK   42  A    between atoms: _102  and  _105
REMARK   43  A    between atoms: _105  and  _106
REMARK   44  A    between atoms: _111  and  _113
REMARK   45  A    between atoms: _113  and  _114
REMARK   46  A    between atoms: _113  and  _116
REMARK   47  A    between atoms: _116  and  _117
REMARK   48  A    between atoms: _117  and  _118
REMARK   49  A    between atoms: _123  and  _125
REMARK   50  A    between atoms: _125  and  _126
REMARK   51  A    between atoms: _125  and  _128
REMARK   52  A    between atoms: _128  and  _129
REMARK   53  A    between atoms: _129  and  _130
REMARK   54  A    between atoms: _133  and  _135
REMARK   55  A    between atoms: _135  and  _136
REMARK   56  A    between atoms: _135  and  _138
REMARK   57  A    between atoms: _138  and  _139
REMARK   58  A    between atoms: _142  and  _144
REMARK   59  A    between atoms: _144  and  _145
REMARK   60  A    between atoms: _144  and  _147
REMARK   61  A    between atoms: _147  and  _148
REMARK   62  A    between atoms: _148  and  _149
REMARK   63  A    between atoms: _152  and  _154
REMARK   64  A    between atoms: _154  and  _155
REMARK   65  A    between atoms: _154  and  _157
REMARK   66  A    between atoms: _157  and  _158
REMARK   67  A    between atoms: _158  and  _160
REMARK   68  A    between atoms: _160  and  MN_338
REMARK   69  A    between atoms: _161  and  _163
REMARK   70  A    between atoms: _163  and  _164
REMARK   71  A    between atoms: _163  and  _166
REMARK   72  A    between atoms: _166  and  _167
REMARK   73  A    between atoms: _167  and  _168
REMARK   74  A    between atoms: _171  and  _173
REMARK   75  A    between atoms: _173  and  _174
REMARK   76  A    between atoms: _173  and  _176
REMARK   77  A    between atoms: _176  and  _177
REMARK   78  A    between atoms: _177  and  _178
REMARK   79  A    between atoms: _178  and  _180
REMARK   80  A    between atoms: _180  and  MN_338
REMARK   81  A    between atoms: _181  and  _183
REMARK   82  A    between atoms: _183  and  _184
REMARK   83  A    between atoms: _183  and  _186
REMARK   84  A    between atoms: _186  and  _187
REMARK   85  A    between atoms: _187  and  _189
REMARK   86  A    between atoms: _189  and  MN_338
REMARK   87  A    between atoms: _190  and  _192
REMARK   88  A    between atoms: _192  and  _193
REMARK   89  A    between atoms: _192  and  _195
REMARK   90  A    between atoms: _195  and  _196
REMARK   91  A    between atoms: _199  and  _201
REMARK   92  A    between atoms: _201  and  _202
REMARK   93  A    between atoms: _201  and  _204
REMARK   94  A    between atoms: _204  and  _205
REMARK   95  A    between atoms: _208  and  _210
REMARK   96  A    between atoms: _210  and  _211
REMARK   97  A    between atoms: _210  and  _213
REMARK   98  A    between atoms: _213  and  _214
REMARK   99  A    between atoms: _214  and  _215
REMARK  100  A    between atoms: _215  and  _216
REMARK  101  A    between atoms: _216  and  _217
REMARK  102  A    between atoms: _221  and  _223
REMARK  103  A    between atoms: _223  and  _224
REMARK  104  A    between atoms: _223  and  _226
REMARK  105  A    between atoms: _226  and  _227
REMARK  106  A    between atoms: _232  and  _234
REMARK  107  A    between atoms: _234  and  _235
REMARK  108  A    between atoms: _234  and  _237
REMARK  109  A    between atoms: _237  and  _238
REMARK  110  A    between atoms: _238  and  _239
REMARK  111  A    between atoms: _244  and  _246
REMARK  112  A    between atoms: _246  and  _247
REMARK  113  A    between atoms: _246  and  _249
REMARK  114  A    between atoms: _249  and  _250
REMARK  115  A    between atoms: _252  and  _254
REMARK  116  A    between atoms: _254  and  _255
REMARK  117  A    between atoms: _254  and  _257
REMARK  118  A    between atoms: _257  and  _258
REMARK  119  A    between atoms: _263  and  _265
REMARK  120  A    between atoms: _265  and  _266
REMARK  121  A    between atoms: _265  and  _268
REMARK  122  A    between atoms: _268  and  _269
REMARK  123  A    between atoms: _269  and  _270
REMARK  124  A    between atoms: _270  and  _271
REMARK  125  A    between atoms: _280  and  _282
REMARK  126  A    between atoms: _282  and  _283
REMARK  127  A    between atoms: _282  and  _285
REMARK  128  A    between atoms: _285  and  _286
REMARK  129  A    between atoms: _288  and  _290
REMARK  130  A    between atoms: _290  and  _291
REMARK  131  A    between atoms: _293  and  _295
REMARK  132  A    between atoms: _295  and  _296
REMARK  133  A    between atoms: _295  and  _298
REMARK  134  A    between atoms: _298  and  _299
REMARK  135  A    between atoms: _299  and  _300
REMARK  136  A    between atoms: _303  and  _305
REMARK  137  A    between atoms: _305  and  _306
REMARK  138  A    between atoms: _305  and  _308
REMARK  139  A    between atoms: _308  and  _309
REMARK  140  A    between atoms: _309  and  _310
REMARK  141  A    between atoms: _310  and  _311
REMARK  142  A    between atoms: _311  and  _312
REMARK  143  A    between atoms: _316  and  _318
REMARK  144  A    between atoms: _318  and  _319
REMARK  145  A    between atoms: _321  and  _323
REMARK  146  A    between atoms: _323  and  _324
REMARK  147  A    between atoms: _323  and  _326
REMARK  148  A    between atoms: _326  and  _327
REMARK  149  A    between atoms: _327  and  _328
REMARK  150  A    between atoms: _328  and  _329
REMARK                            x       y       z     vdW  Elec       q    Type
REMARK                         _______ _______ _______ _____ _____    ______ ____
ROOT
ATOM      1  O   HOH     1      25.787  63.314  13.133  0.00  0.00    +0.000 OA
ENDROOT
TORSDOF 0
REMARK  Name = ../refined-set-2016/1pdz/1pdz_pocket.pdb
REMARK  150 active torsions:
REMARK  status: ('A' for Active; 'I' for Inactive)
REMARK    1  A    between atoms: _1  and  _3
REMARK    2  A    between atoms: _3  and  _4
REMARK    3  A    between atoms: _3  and  _6
REMARK    4  A    between atoms: _6  and  _7
REMARK    5  A    between atoms: _7  and  _8
REMARK    6  A    between atoms: _8  and  _9
REMARK    7  A    between atoms: _19  and  _20
REMARK    8  A    between atoms: _25  and  _27
REMARK    9  A    between atoms: _27  and  _28
REMARK   10  A    between atoms: _27  and  _30
REMARK   11  A    between atoms: _30  and  _31
REMARK   12  A    between atoms: _33  and  _35
REMARK   13  A    between atoms: _35  and  _36
REMARK   14  A    between atoms: _38  and  _40
REMARK   15  A    between atoms: _40  and  _41
REMARK   16  A    between atoms: _44  and  _46
REMARK   17  A    between atoms: _46  and  _47
REMARK   18  A    between atoms: _46  and  _49
REMARK   19  A    between atoms: _49  and  _50
REMARK   20  A    between atoms: _50  and  _51
REMARK   21  A    between atoms: _54  and  _56
REMARK   22  A    between atoms: _56  and  _57
REMARK   23  A    between atoms: _56  and  _59
REMARK   24  A    between atoms: _59  and  _60
REMARK   25  A    between atoms: _60  and  _61
REMARK   26  A    between atoms: _64  and  _66
REMARK   27  A    between atoms: _66  and  _67
REMARK   28  A    between atoms: _66  and  _69
REMARK   29  A    between atoms: _69  and  _70
REMARK   30  A    between atoms: _70  and  _71
REMARK   31  A    between atoms: _71  and  _72
REMARK   32  A    between atoms: _81  and  _83
REMARK   33  A    between atoms: _83  and  _84
REMARK   34  A    between atoms: _83  and  _86
REMARK   35  A    between atoms: _86  and  _87
REMARK   36  A    between atoms: _92  and  _94
REMARK   37  A    between atoms: _94  and  _95
REMARK   38  A    between atoms: _94  and  _97
REMARK   39  A    between atoms: _97  and  _98
REMARK   40  A    between atoms: _100  and  _102
REMARK   41  A    between atoms: _102  and  _103
REMARK   42  A    between atoms: _102  and  _105
REMARK   43  A    between atoms: _105  and  _106
REMARK   44  A    between atoms: _111  and  _113
REMARK   45  A    between atoms: _113  and  _114
REMARK   46  A    between atoms: _113  and  _116
REMARK   47  A    between atoms: _116  and  _117
REMARK   48  A    between atoms: _117  and  _118
REMARK   49  A    between atoms: _123  and  _125
REMARK   50  A    between atoms: _125  and  _126
REMARK   51  A    between atoms: _125  and  _128
REMARK   52  A    between atoms: _128  and  _129
REMARK   53  A    between atoms: _129  and  _130
REMARK   54  A    between atoms: _133  and  _135
REMARK   55  A    between atoms: _135  and  _136
REMARK   56  A    between atoms: _135  and  _138
REMARK   57  A    between atoms: _138  and  _139
REMARK   58  A    between atoms: _142  and  _144
REMARK   59  A    between atoms: _144  and  _145
REMARK   60  A    between atoms: _144  and  _147
REMARK   61  A    between atoms: _147  and  _148
REMARK   62  A    between atoms: _148  and  _149
REMARK   63  A    between atoms: _152  and  _154
REMARK   64  A    between atoms: _154  and  _155
REMARK   65  A    between atoms: _154  and  _157
REMARK   66  A    between atoms: _157  and  _158
REMARK   67  A    between atoms: _158  and  _160
REMARK   68  A    between atoms: _160  and  MN_338
REMARK   69  A    between atoms: _161  and  _163
REMARK   70  A    between atoms: _163  and  _164
REMARK   71  A    between atoms: _163  and  _166
REMARK   72  A    between atoms: _166  and  _167
REMARK   73  A    between atoms: _167  and  _168
REMARK   74  A    between atoms: _171  and  _173
REMARK   75  A    between atoms: _173  and  _174
REMARK   76  A    between atoms: _173  and  _176
REMARK   77  A    between atoms: _176  and  _177
REMARK   78  A    between atoms: _177  and  _178
REMARK   79  A    between atoms: _178  and  _180
REMARK   80  A    between atoms: _180  and  MN_338
REMARK   81  A    between atoms: _181  and  _183
REMARK   82  A    between atoms: _183  and  _184
REMARK   83  A    between atoms: _183  and  _186
REMARK   84  A    between atoms: _186  and  _187
REMARK   85  A    between atoms: _187  and  _189
REMARK   86  A    between atoms: _189  and  MN_338
REMARK   87  A    between atoms: _190  and  _192
REMARK   88  A    between atoms: _192  and  _193
REMARK   89  A    between atoms: _192  and  _195
REMARK   90  A    between atoms: _195  and  _196
REMARK   91  A    between atoms: _199  and  _201
REMARK   92  A    between atoms: _201  and  _202
REMARK   93  A    between atoms: _201  and  _204
REMARK   94  A    between atoms: _204  and  _205
REMARK   95  A    between atoms: _208  and  _210
REMARK   96  A    between atoms: _210  and  _211
REMARK   97  A    between atoms: _210  and  _213
REMARK   98  A    between atoms: _213  and  _214
REMARK   99  A    between atoms: _214  and  _215
REMARK  100  A    between atoms: _215  and  _216
REMARK  101  A    between atoms: _216  and  _217
REMARK  102  A    between atoms: _221  and  _223
REMARK  103  A    between atoms: _223  and  _224
REMARK  104  A    between atoms: _223  and  _226
REMARK  105  A    between atoms: _226  and  _227
REMARK  106  A    between atoms: _232  and  _234
REMARK  107  A    between atoms: _234  and  _235
REMARK  108  A    between atoms: _234  and  _237
REMARK  109  A    between atoms: _237  and  _238
REMARK  110  A    between atoms: _238  and  _239
REMARK  111  A    between atoms: _244  and  _246
REMARK  112  A    between atoms: _246  and  _247
REMARK  113  A    between atoms: _246  and  _249
REMARK  114  A    between atoms: _249  and  _250
REMARK  115  A    between atoms: _252  and  _254
REMARK  116  A    between atoms: _254  and  _255
REMARK  117  A    between atoms: _254  and  _257
REMARK  118  A    between atoms: _257  and  _258
REMARK  119  A    between atoms: _263  and  _265
REMARK  120  A    between atoms: _265  and  _266
REMARK  121  A    between atoms: _265  and  _268
REMARK  122  A    between atoms: _268  and  _269
REMARK  123  A    between atoms: _269  and  _270
REMARK  124  A    between atoms: _270  and  _271
REMARK  125  A    between atoms: _280  and  _282
REMARK  126  A    between atoms: _282  and  _283
REMARK  127  A    between atoms: _282  and  _285
REMARK  128  A    between atoms: _285  and  _286
REMARK  129  A    between atoms: _288  and  _290
REMARK  130  A    between atoms: _290  and  _291
REMARK  131  A    between atoms: _293  and  _295
REMARK  132  A    between atoms: _295  and  _296
REMARK  133  A    between atoms: _295  and  _298
REMARK  134  A    between atoms: _298  and  _299
REMARK  135  A    between atoms: _299  and  _300
REMARK  136  A    between atoms: _303  and  _305
REMARK  137  A    between atoms: _305  and  _306
REMARK  138  A    between atoms: _305  and  _308
REMARK  139  A    between atoms: _308  and  _309
REMARK  140  A    between atoms: _309  and  _310
REMARK  141  A    between atoms: _310  and  _311
REMARK  142  A    between atoms: _311  and  _312
REMARK  143  A    between atoms: _316  and  _318
REMARK  144  A    between atoms: _318  and  _319
REMARK  145  A    between atoms: _321  and  _323
REMARK  146  A    between atoms: _323  and  _324
REMARK  147  A    between atoms: _323  and  _326
REMARK  148  A    between atoms: _326  and  _327
REMARK  149  A    between atoms: _327  and  _328
REMARK  150  A    between atoms: _328  and  _329
REMARK                            x       y       z     vdW  Elec       q    Type
REMARK                         _______ _______ _______ _____ _____    ______ ____
ROOT
ATOM      1  O   HOH     1      26.662  71.496   3.625  0.00  0.00    +0.000 OA
ENDROOT
TORSDOF 0
REMARK  Name = ../refined-set-2016/1pdz/1pdz_pocket.pdb
REMARK  150 active torsions:
REMARK  status: ('A' for Active; 'I' for Inactive)
REMARK    1  A    between atoms: _1  and  _3
REMARK    2  A    between atoms: _3  and  _4
REMARK    3  A    between atoms: _3  and  _6
REMARK    4  A    between atoms: _6  and  _7
REMARK    5  A    between atoms: _7  and  _8
REMARK    6  A    between atoms: _8  and  _9
REMARK    7  A    between atoms: _19  and  _20
REMARK    8  A    between atoms: _25  and  _27
REMARK    9  A    between atoms: _27  and  _28
REMARK   10  A    between atoms: _27  and  _30
REMARK   11  A    between atoms: _30  and  _31
REMARK   12  A    between atoms: _33  and  _35
REMARK   13  A    between atoms: _35  and  _36
REMARK   14  A    between atoms: _38  and  _40
REMARK   15  A    between atoms: _40  and  _41
REMARK   16  A    between atoms: _44  and  _46
REMARK   17  A    between atoms: _46  and  _47
REMARK   18  A    between atoms: _46  and  _49
REMARK   19  A    between atoms: _49  and  _50
REMARK   20  A    between atoms: _50  and  _51
REMARK   21  A    between atoms: _54  and  _56
REMARK   22  A    between atoms: _56  and  _57
REMARK   23  A    between atoms: _56  and  _59
REMARK   24  A    between atoms: _59  and  _60
REMARK   25  A    between atoms: _60  and  _61
REMARK   26  A    between atoms: _64  and  _66
REMARK   27  A    between atoms: _66  and  _67
REMARK   28  A    between atoms: _66  and  _69
REMARK   29  A    between atoms: _69  and  _70
REMARK   30  A    between atoms: _70  and  _71
REMARK   31  A    between atoms: _71  and  _72
REMARK   32  A    between atoms: _81  and  _83
REMARK   33  A    between atoms: _83  and  _84
REMARK   34  A    between atoms: _83  and  _86
REMARK   35  A    between atoms: _86  and  _87
REMARK   36  A    between atoms: _92  and  _94
REMARK   37  A    between atoms: _94  and  _95
REMARK   38  A    between atoms: _94  and  _97
REMARK   39  A    between atoms: _97  and  _98
REMARK   40  A    between atoms: _100  and  _102
REMARK   41  A    between atoms: _102  and  _103
REMARK   42  A    between atoms: _102  and  _105
REMARK   43  A    between atoms: _105  and  _106
REMARK   44  A    between atoms: _111  and  _113
REMARK   45  A    between atoms: _113  and  _114
REMARK   46  A    between atoms: _113  and  _116
REMARK   47  A    between atoms: _116  and  _117
REMARK   48  A    between atoms: _117  and  _118
REMARK   49  A    between atoms: _123  and  _125
REMARK   50  A    between atoms: _125  and  _126
REMARK   51  A    between atoms: _125  and  _128
REMARK   52  A    between atoms: _128  and  _129
REMARK   53  A    between atoms: _129  and  _130
REMARK   54  A    between atoms: _133  and  _135
REMARK   55  A    between atoms: _135  and  _136
REMARK   56  A    between atoms: _135  and  _138
REMARK   57  A    between atoms: _138  and  _139
REMARK   58  A    between atoms: _142  and  _144
REMARK   59  A    between atoms: _144  and  _145
REMARK   60  A    between atoms: _144  and  _147
REMARK   61  A    between atoms: _147  and  _148
REMARK   62  A    between atoms: _148  and  _149
REMARK   63  A    between atoms: _152  and  _154
REMARK   64  A    between atoms: _154  and  _155
REMARK   65  A    between atoms: _154  and  _157
REMARK   66  A    between atoms: _157  and  _158
REMARK   67  A    between atoms: _158  and  _160
REMARK   68  A    between atoms: _160  and  MN_338
REMARK   69  A    between atoms: _161  and  _163
REMARK   70  A    between atoms: _163  and  _164
REMARK   71  A    between atoms: _163  and  _166
REMARK   72  A    between atoms: _166  and  _167
REMARK   73  A    between atoms: _167  and  _168
REMARK   74  A    between atoms: _171  and  _173
REMARK   75  A    between atoms: _173  and  _174
REMARK   76  A    between atoms: _173  and  _176
REMARK   77  A    between atoms: _176  and  _177
REMARK   78  A    between atoms: _177  and  _178
REMARK   79  A    between atoms: _178  and  _180
REMARK   80  A    between atoms: _180  and  MN_338
REMARK   81  A    between atoms: _181  and  _183
REMARK   82  A    between atoms: _183  and  _184
REMARK   83  A    between atoms: _183  and  _186
REMARK   84  A    between atoms: _186  and  _187
REMARK   85  A    between atoms: _187  and  _189
REMARK   86  A    between atoms: _189  and  MN_338
REMARK   87  A    between atoms: _190  and  _192
REMARK   88  A    between atoms: _192  and  _193
REMARK   89  A    between atoms: _192  and  _195
REMARK   90  A    between atoms: _195  and  _196
REMARK   91  A    between atoms: _199  and  _201
REMARK   92  A    between atoms: _201  and  _202
REMARK   93  A    between atoms: _201  and  _204
REMARK   94  A    between atoms: _204  and  _205
REMARK   95  A    between atoms: _208  and  _210
REMARK   96  A    between atoms: _210  and  _211
REMARK   97  A    between atoms: _210  and  _213
REMARK   98  A    between atoms: _213  and  _214
REMARK   99  A    between atoms: _214  and  _215
REMARK  100  A    between atoms: _215  and  _216
REMARK  101  A    between atoms: _216  and  _217
REMARK  102  A    between atoms: _221  and  _223
REMARK  103  A    between atoms: _223  and  _224
REMARK  104  A    between atoms: _223  and  _226
REMARK  105  A    between atoms: _226  and  _227
REMARK  106  A    between atoms: _232  and  _234
REMARK  107  A    between atoms: _234  and  _235
REMARK  108  A    between atoms: _234  and  _237
REMARK  109  A    between atoms: _237  and  _238
REMARK  110  A    between atoms: _238  and  _239
REMARK  111  A    between atoms: _244  and  _246
REMARK  112  A    between atoms: _246  and  _247
REMARK  113  A    between atoms: _246  and  _249
REMARK  114  A    between atoms: _249  and  _250
REMARK  115  A    between atoms: _252  and  _254
REMARK  116  A    between atoms: _254  and  _255
REMARK  117  A    between atoms: _254  and  _257
REMARK  118  A    between atoms: _257  and  _258
REMARK  119  A    between atoms: _263  and  _265
REMARK  120  A    between atoms: _265  and  _266
REMARK  121  A    between atoms: _265  and  _268
REMARK  122  A    between atoms: _268  and  _269
REMARK  123  A    between atoms: _269  and  _270
REMARK  124  A    between atoms: _270  and  _271
REMARK  125  A    between atoms: _280  and  _282
REMARK  126  A    between atoms: _282  and  _283
REMARK  127  A    between atoms: _282  and  _285
REMARK  128  A    between atoms: _285  and  _286
REMARK  129  A    between atoms: _288  and  _290
REMARK  130  A    between atoms: _290  and  _291
REMARK  131  A    between atoms: _293  and  _295
REMARK  132  A    between atoms: _295  and  _296
REMARK  133  A    between atoms: _295  and  _298
REMARK  134  A    between atoms: _298  and  _299
REMARK  135  A    between atoms: _299  and  _300
REMARK  136  A    between atoms: _303  and  _305
REMARK  137  A    between atoms: _305  and  _306
REMARK  138  A    between atoms: _305  and  _308
REMARK  139  A    between atoms: _308  and  _309
REMARK  140  A    between atoms: _309  and  _310
REMARK  141  A    between atoms: _310  and  _311
REMARK  142  A    between atoms: _311  and  _312
REMARK  143  A    between atoms: _316  and  _318
REMARK  144  A    between atoms: _318  and  _319
REMARK  145  A    between atoms: _321  and  _323
REMARK  146  A    between atoms: _323  and  _324
REMARK  147  A    between atoms: _323  and  _326
REMARK  148  A    between atoms: _326  and  _327
REMARK  149  A    between atoms: _327  and  _328
REMARK  150  A    between atoms: _328  and  _329
REMARK                            x       y       z     vdW  Elec       q    Type
REMARK                         _______ _______ _______ _____ _____    ______ ____
ROOT
ATOM      1  O   HOH     1      38.174  64.033  12.145  0.00  0.00    +0.000 OA
ENDROOT
TORSDOF 0
REMARK  Name = ../refined-set-2016/1pdz/1pdz_pocket.pdb
REMARK  150 active torsions:
REMARK  status: ('A' for Active; 'I' for Inactive)
REMARK    1  A    between atoms: _1  and  _3
REMARK    2  A    between atoms: _3  and  _4
REMARK    3  A    between atoms: _3  and  _6
REMARK    4  A    between atoms: _6  and  _7
REMARK    5  A    between atoms: _7  and  _8
REMARK    6  A    between atoms: _8  and  _9
REMARK    7  A    between atoms: _19  and  _20
REMARK    8  A    between atoms: _25  and  _27
REMARK    9  A    between atoms: _27  and  _28
REMARK   10  A    between atoms: _27  and  _30
REMARK   11  A    between atoms: _30  and  _31
REMARK   12  A    between atoms: _33  and  _35
REMARK   13  A    between atoms: _35  and  _36
REMARK   14  A    between atoms: _38  and  _40
REMARK   15  A    between atoms: _40  and  _41
REMARK   16  A    between atoms: _44  and  _46
REMARK   17  A    between atoms: _46  and  _47
REMARK   18  A    between atoms: _46  and  _49
REMARK   19  A    between atoms: _49  and  _50
REMARK   20  A    between atoms: _50  and  _51
REMARK   21  A    between atoms: _54  and  _56
REMARK   22  A    between atoms: _56  and  _57
REMARK   23  A    between atoms: _56  and  _59
REMARK   24  A    between atoms: _59  and  _60
REMARK   25  A    between atoms: _60  and  _61
REMARK   26  A    between atoms: _64  and  _66
REMARK   27  A    between atoms: _66  and  _67
REMARK   28  A    between atoms: _66  and  _69
REMARK   29  A    between atoms: _69  and  _70
REMARK   30  A    between atoms: _70  and  _71
REMARK   31  A    between atoms: _71  and  _72
REMARK   32  A    between atoms: _81  and  _83
REMARK   33  A    between atoms: _83  and  _84
REMARK   34  A    between atoms: _83  and  _86
REMARK   35  A    between atoms: _86  and  _87
REMARK   36  A    between atoms: _92  and  _94
REMARK   37  A    between atoms: _94  and  _95
REMARK   38  A    between atoms: _94  and  _97
REMARK   39  A    between atoms: _97  and  _98
REMARK   40  A    between atoms: _100  and  _102
REMARK   41  A    between atoms: _102  and  _103
REMARK   42  A    between atoms: _102  and  _105
REMARK   43  A    between atoms: _105  and  _106
REMARK   44  A    between atoms: _111  and  _113
REMARK   45  A    between atoms: _113  and  _114
REMARK   46  A    between atoms: _113  and  _116
REMARK   47  A    between atoms: _116  and  _117
REMARK   48  A    between atoms: _117  and  _118
REMARK   49  A    between atoms: _123  and  _125
REMARK   50  A    between atoms: _125  and  _126
REMARK   51  A    between atoms: _125  and  _128
REMARK   52  A    between atoms: _128  and  _129
REMARK   53  A    between atoms: _129  and  _130
REMARK   54  A    between atoms: _133  and  _135
REMARK   55  A    between atoms: _135  and  _136
REMARK   56  A    between atoms: _135  and  _138
REMARK   57  A    between atoms: _138  and  _139
REMARK   58  A    between atoms: _142  and  _144
REMARK   59  A    between atoms: _144  and  _145
REMARK   60  A    between atoms: _144  and  _147
REMARK   61  A    between atoms: _147  and  _148
REMARK   62  A    between atoms: _148  and  _149
REMARK   63  A    between atoms: _152  and  _154
REMARK   64  A    between atoms: _154  and  _155
REMARK   65  A    between atoms: _154  and  _157
REMARK   66  A    between atoms: _157  and  _158
REMARK   67  A    between atoms: _158  and  _160
REMARK   68  A    between atoms: _160  and  MN_338
REMARK   69  A    between atoms: _161  and  _163
REMARK   70  A    between atoms: _163  and  _164
REMARK   71  A    between atoms: _163  and  _166
REMARK   72  A    between atoms: _166  and  _167
REMARK   73  A    between atoms: _167  and  _168
REMARK   74  A    between atoms: _171  and  _173
REMARK   75  A    between atoms: _173  and  _174
REMARK   76  A    between atoms: _173  and  _176
REMARK   77  A    between atoms: _176  and  _177
REMARK   78  A    between atoms: _177  and  _178
REMARK   79  A    between atoms: _178  and  _180
REMARK   80  A    between atoms: _180  and  MN_338
REMARK   81  A    between atoms: _181  and  _183
REMARK   82  A    between atoms: _183  and  _184
REMARK   83  A    between atoms: _183  and  _186
REMARK   84  A    between atoms: _186  and  _187
REMARK   85  A    between atoms: _187  and  _189
REMARK   86  A    between atoms: _189  and  MN_338
REMARK   87  A    between atoms: _190  and  _192
REMARK   88  A    between atoms: _192  and  _193
REMARK   89  A    between atoms: _192  and  _195
REMARK   90  A    between atoms: _195  and  _196
REMARK   91  A    between atoms: _199  and  _201
REMARK   92  A    between atoms: _201  and  _202
REMARK   93  A    between atoms: _201  and  _204
REMARK   94  A    between atoms: _204  and  _205
REMARK   95  A    between atoms: _208  and  _210
REMARK   96  A    between atoms: _210  and  _211
REMARK   97  A    between atoms: _210  and  _213
REMARK   98  A    between atoms: _213  and  _214
REMARK   99  A    between atoms: _214  and  _215
REMARK  100  A    between atoms: _215  and  _216
REMARK  101  A    between atoms: _216  and  _217
REMARK  102  A    between atoms: _221  and  _223
REMARK  103  A    between atoms: _223  and  _224
REMARK  104  A    between atoms: _223  and  _226
REMARK  105  A    between atoms: _226  and  _227
REMARK  106  A    between atoms: _232  and  _234
REMARK  107  A    between atoms: _234  and  _235
REMARK  108  A    between atoms: _234  and  _237
REMARK  109  A    between atoms: _237  and  _238
REMARK  110  A    between atoms: _238  and  _239
REMARK  111  A    between atoms: _244  and  _246
REMARK  112  A    between atoms: _246  and  _247
REMARK  113  A    between atoms: _246  and  _249
REMARK  114  A    between atoms: _249  and  _250
REMARK  115  A    between atoms: _252  and  _254
REMARK  116  A    between atoms: _254  and  _255
REMARK  117  A    between atoms: _254  and  _257
REMARK  118  A    between atoms: _257  and  _258
REMARK  119  A    between atoms: _263  and  _265
REMARK  120  A    between atoms: _265  and  _266
REMARK  121  A    between atoms: _265  and  _268
REMARK  122  A    between atoms: _268  and  _269
REMARK  123  A    between atoms: _269  and  _270
REMARK  124  A    between atoms: _270  and  _271
REMARK  125  A    between atoms: _280  and  _282
REMARK  126  A    between atoms: _282  and  _283
REMARK  127  A    between atoms: _282  and  _285
REMARK  128  A    between atoms: _285  and  _286
REMARK  129  A    between atoms: _288  and  _290
REMARK  130  A    between atoms: _290  and  _291
REMARK  131  A    between atoms: _293  and  _295
REMARK  132  A    between atoms: _295  and  _296
REMARK  133  A    between atoms: _295  and  _298
REMARK  134  A    between atoms: _298  and  _299
REMARK  135  A    between atoms: _299  and  _300
REMARK  136  A    between atoms: _303  and  _305
REMARK  137  A    between atoms: _305  and  _306
REMARK  138  A    between atoms: _305  and  _308
REMARK  139  A    between atoms: _308  and  _309
REMARK  140  A    between atoms: _309  and  _310
REMARK  141  A    between atoms: _310  and  _311
REMARK  142  A    between atoms: _311  and  _312
REMARK  143  A    between atoms: _316  and  _318
REMARK  144  A    between atoms: _318  and  _319
REMARK  145  A    between atoms: _321  and  _323
REMARK  146  A    between atoms: _323  and  _324
REMARK  147  A    between atoms: _323  and  _326
REMARK  148  A    between atoms: _326  and  _327
REMARK  149  A    between atoms: _327  and  _328
REMARK  150  A    between atoms: _328  and  _329
REMARK                            x       y       z     vdW  Elec       q    Type
REMARK                         _______ _______ _______ _____ _____    ______ ____
ROOT
ATOM      1  O   HOH     1      28.498  71.726  15.260  0.00  0.00    +0.000 OA
ENDROOT
TORSDOF 0
REMARK  Name = ../refined-set-2016/1pdz/1pdz_pocket.pdb
REMARK  150 active torsions:
REMARK  status: ('A' for Active; 'I' for Inactive)
REMARK    1  A    between atoms: _1  and  _3
REMARK    2  A    between atoms: _3  and  _4
REMARK    3  A    between atoms: _3  and  _6
REMARK    4  A    between atoms: _6  and  _7
REMARK    5  A    between atoms: _7  and  _8
REMARK    6  A    between atoms: _8  and  _9
REMARK    7  A    between atoms: _19  and  _20
REMARK    8  A    between atoms: _25  and  _27
REMARK    9  A    between atoms: _27  and  _28
REMARK   10  A    between atoms: _27  and  _30
REMARK   11  A    between atoms: _30  and  _31
REMARK   12  A    between atoms: _33  and  _35
REMARK   13  A    between atoms: _35  and  _36
REMARK   14  A    between atoms: _38  and  _40
REMARK   15  A    between atoms: _40  and  _41
REMARK   16  A    between atoms: _44  and  _46
REMARK   17  A    between atoms: _46  and  _47
REMARK   18  A    between atoms: _46  and  _49
REMARK   19  A    between atoms: _49  and  _50
REMARK   20  A    between atoms: _50  and  _51
REMARK   21  A    between atoms: _54  and  _56
REMARK   22  A    between atoms: _56  and  _57
REMARK   23  A    between atoms: _56  and  _59
REMARK   24  A    between atoms: _59  and  _60
REMARK   25  A    between atoms: _60  and  _61
REMARK   26  A    between atoms: _64  and  _66
REMARK   27  A    between atoms: _66  and  _67
REMARK   28  A    between atoms: _66  and  _69
REMARK   29  A    between atoms: _69  and  _70
REMARK   30  A    between atoms: _70  and  _71
REMARK   31  A    between atoms: _71  and  _72
REMARK   32  A    between atoms: _81  and  _83
REMARK   33  A    between atoms: _83  and  _84
REMARK   34  A    between atoms: _83  and  _86
REMARK   35  A    between atoms: _86  and  _87
REMARK   36  A    between atoms: _92  and  _94
REMARK   37  A    between atoms: _94  and  _95
REMARK   38  A    between atoms: _94  and  _97
REMARK   39  A    between atoms: _97  and  _98
REMARK   40  A    between atoms: _100  and  _102
REMARK   41  A    between atoms: _102  and  _103
REMARK   42  A    between atoms: _102  and  _105
REMARK   43  A    between atoms: _105  and  _106
REMARK   44  A    between atoms: _111  and  _113
REMARK   45  A    between atoms: _113  and  _114
REMARK   46  A    between atoms: _113  and  _116
REMARK   47  A    between atoms: _116  and  _117
REMARK   48  A    between atoms: _117  and  _118
REMARK   49  A    between atoms: _123  and  _125
REMARK   50  A    between atoms: _125  and  _126
REMARK   51  A    between atoms: _125  and  _128
REMARK   52  A    between atoms: _128  and  _129
REMARK   53  A    between atoms: _129  and  _130
REMARK   54  A    between atoms: _133  and  _135
REMARK   55  A    between atoms: _135  and  _136
REMARK   56  A    between atoms: _135  and  _138
REMARK   57  A    between atoms: _138  and  _139
REMARK   58  A    between atoms: _142  and  _144
REMARK   59  A    between atoms: _144  and  _145
REMARK   60  A    between atoms: _144  and  _147
REMARK   61  A    between atoms: _147  and  _148
REMARK   62  A    between atoms: _148  and  _149
REMARK   63  A    between atoms: _152  and  _154
REMARK   64  A    between atoms: _154  and  _155
REMARK   65  A    between atoms: _154  and  _157
REMARK   66  A    between atoms: _157  and  _158
REMARK   67  A    between atoms: _158  and  _160
REMARK   68  A    between atoms: _160  and  MN_338
REMARK   69  A    between atoms: _161  and  _163
REMARK   70  A    between atoms: _163  and  _164
REMARK   71  A    between atoms: _163  and  _166
REMARK   72  A    between atoms: _166  and  _167
REMARK   73  A    between atoms: _167  and  _168
REMARK   74  A    between atoms: _171  and  _173
REMARK   75  A    between atoms: _173  and  _174
REMARK   76  A    between atoms: _173  and  _176
REMARK   77  A    between atoms: _176  and  _177
REMARK   78  A    between atoms: _177  and  _178
REMARK   79  A    between atoms: _178  and  _180
REMARK   80  A    between atoms: _180  and  MN_338
REMARK   81  A    between atoms: _181  and  _183
REMARK   82  A    between atoms: _183  and  _184
REMARK   83  A    between atoms: _183  and  _186
REMARK   84  A    between atoms: _186  and  _187
REMARK   85  A    between atoms: _187  and  _189
REMARK   86  A    between atoms: _189  and  MN_338
REMARK   87  A    between atoms: _190  and  _192
REMARK   88  A    between atoms: _192  and  _193
REMARK   89  A    between atoms: _192  and  _195
REMARK   90  A    between atoms: _195  and  _196
REMARK   91  A    between atoms: _199  and  _201
REMARK   92  A    between atoms: _201  and  _202
REMARK   93  A    between atoms: _201  and  _204
REMARK   94  A    between atoms: _204  and  _205
REMARK   95  A    between atoms: _208  and  _210
REMARK   96  A    between atoms: _210  and  _211
REMARK   97  A    between atoms: _210  and  _213
REMARK   98  A    between atoms: _213  and  _214
REMARK   99  A    between atoms: _214  and  _215
REMARK  100  A    between atoms: _215  and  _216
REMARK  101  A    between atoms: _216  and  _217
REMARK  102  A    between atoms: _221  and  _223
REMARK  103  A    between atoms: _223  and  _224
REMARK  104  A    between atoms: _223  and  _226
REMARK  105  A    between atoms: _226  and  _227
REMARK  106  A    between atoms: _232  and  _234
REMARK  107  A    between atoms: _234  and  _235
REMARK  108  A    between atoms: _234  and  _237
REMARK  109  A    between atoms: _237  and  _238
REMARK  110  A    between atoms: _238  and  _239
REMARK  111  A    between atoms: _244  and  _246
REMARK  112  A    between atoms: _246  and  _247
REMARK  113  A    between atoms: _246  and  _249
REMARK  114  A    between atoms: _249  and  _250
REMARK  115  A    between atoms: _252  and  _254
REMARK  116  A    between atoms: _254  and  _255
REMARK  117  A    between atoms: _254  and  _257
REMARK  118  A    between atoms: _257  and  _258
REMARK  119  A    between atoms: _263  and  _265
REMARK  120  A    between atoms: _265  and  _266
REMARK  121  A    between atoms: _265  and  _268
REMARK  122  A    between atoms: _268  and  _269
REMARK  123  A    between atoms: _269  and  _270
REMARK  124  A    between atoms: _270  and  _271
REMARK  125  A    between atoms: _280  and  _282
REMARK  126  A    between atoms: _282  and  _283
REMARK  127  A    between atoms: _282  and  _285
REMARK  128  A    between atoms: _285  and  _286
REMARK  129  A    between atoms: _288  and  _290
REMARK  130  A    between atoms: _290  and  _291
REMARK  131  A    between atoms: _293  and  _295
REMARK  132  A    between atoms: _295  and  _296
REMARK  133  A    between atoms: _295  and  _298
REMARK  134  A    between atoms: _298  and  _299
REMARK  135  A    between atoms: _299  and  _300
REMARK  136  A    between atoms: _303  and  _305
REMARK  137  A    between atoms: _305  and  _306
REMARK  138  A    between atoms: _305  and  _308
REMARK  139  A    between atoms: _308  and  _309
REMARK  140  A    between atoms: _309  and  _310
REMARK  141  A    between atoms: _310  and  _311
REMARK  142  A    between atoms: _311  and  _312
REMARK  143  A    between atoms: _316  and  _318
REMARK  144  A    between atoms: _318  and  _319
REMARK  145  A    between atoms: _321  and  _323
REMARK  146  A    between atoms: _323  and  _324
REMARK  147  A    between atoms: _323  and  _326
REMARK  148  A    between atoms: _326  and  _327
REMARK  149  A    between atoms: _327  and  _328
REMARK  150  A    between atoms: _328  and  _329
REMARK                            x       y       z     vdW  Elec       q    Type
REMARK                         _______ _______ _______ _____ _____    ______ ____
ROOT
ATOM      1  O   HOH     1      32.324  69.326  18.949  0.00  0.00    +0.000 OA
ENDROOT
TORSDOF 0
REMARK  Name = ../refined-set-2016/1pdz/1pdz_pocket.pdb
REMARK  150 active torsions:
REMARK  status: ('A' for Active; 'I' for Inactive)
REMARK    1  A    between atoms: _1  and  _3
REMARK    2  A    between atoms: _3  and  _4
REMARK    3  A    between atoms: _3  and  _6
REMARK    4  A    between atoms: _6  and  _7
REMARK    5  A    between atoms: _7  and  _8
REMARK    6  A    between atoms: _8  and  _9
REMARK    7  A    between atoms: _19  and  _20
REMARK    8  A    between atoms: _25  and  _27
REMARK    9  A    between atoms: _27  and  _28
REMARK   10  A    between atoms: _27  and  _30
REMARK   11  A    between atoms: _30  and  _31
REMARK   12  A    between atoms: _33  and  _35
REMARK   13  A    between atoms: _35  and  _36
REMARK   14  A    between atoms: _38  and  _40
REMARK   15  A    between atoms: _40  and  _41
REMARK   16  A    between atoms: _44  and  _46
REMARK   17  A    between atoms: _46  and  _47
REMARK   18  A    between atoms: _46  and  _49
REMARK   19  A    between atoms: _49  and  _50
REMARK   20  A    between atoms: _50  and  _51
REMARK   21  A    between atoms: _54  and  _56
REMARK   22  A    between atoms: _56  and  _57
REMARK   23  A    between atoms: _56  and  _59
REMARK   24  A    between atoms: _59  and  _60
REMARK   25  A    between atoms: _60  and  _61
REMARK   26  A    between atoms: _64  and  _66
REMARK   27  A    between atoms: _66  and  _67
REMARK   28  A    between atoms: _66  and  _69
REMARK   29  A    between atoms: _69  and  _70
REMARK   30  A    between atoms: _70  and  _71
REMARK   31  A    between atoms: _71  and  _72
REMARK   32  A    between atoms: _81  and  _83
REMARK   33  A    between atoms: _83  and  _84
REMARK   34  A    between atoms: _83  and  _86
REMARK   35  A    between atoms: _86  and  _87
REMARK   36  A    between atoms: _92  and  _94
REMARK   37  A    between atoms: _94  and  _95
REMARK   38  A    between atoms: _94  and  _97
REMARK   39  A    between atoms: _97  and  _98
REMARK   40  A    between atoms: _100  and  _102
REMARK   41  A    between atoms: _102  and  _103
REMARK   42  A    between atoms: _102  and  _105
REMARK   43  A    between atoms: _105  and  _106
REMARK   44  A    between atoms: _111  and  _113
REMARK   45  A    between atoms: _113  and  _114
REMARK   46  A    between atoms: _113  and  _116
REMARK   47  A    between atoms: _116  and  _117
REMARK   48  A    between atoms: _117  and  _118
REMARK   49  A    between atoms: _123  and  _125
REMARK   50  A    between atoms: _125  and  _126
REMARK   51  A    between atoms: _125  and  _128
REMARK   52  A    between atoms: _128  and  _129
REMARK   53  A    between atoms: _129  and  _130
REMARK   54  A    between atoms: _133  and  _135
REMARK   55  A    between atoms: _135  and  _136
REMARK   56  A    between atoms: _135  and  _138
REMARK   57  A    between atoms: _138  and  _139
REMARK   58  A    between atoms: _142  and  _144
REMARK   59  A    between atoms: _144  and  _145
REMARK   60  A    between atoms: _144  and  _147
REMARK   61  A    between atoms: _147  and  _148
REMARK   62  A    between atoms: _148  and  _149
REMARK   63  A    between atoms: _152  and  _154
REMARK   64  A    between atoms: _154  and  _155
REMARK   65  A    between atoms: _154  and  _157
REMARK   66  A    between atoms: _157  and  _158
REMARK   67  A    between atoms: _158  and  _160
REMARK   68  A    between atoms: _160  and  MN_338
REMARK   69  A    between atoms: _161  and  _163
REMARK   70  A    between atoms: _163  and  _164
REMARK   71  A    between atoms: _163  and  _166
REMARK   72  A    between atoms: _166  and  _167
REMARK   73  A    between atoms: _167  and  _168
REMARK   74  A    between atoms: _171  and  _173
REMARK   75  A    between atoms: _173  and  _174
REMARK   76  A    between atoms: _173  and  _176
REMARK   77  A    between atoms: _176  and  _177
REMARK   78  A    between atoms: _177  and  _178
REMARK   79  A    between atoms: _178  and  _180
REMARK   80  A    between atoms: _180  and  MN_338
REMARK   81  A    between atoms: _181  and  _183
REMARK   82  A    between atoms: _183  and  _184
REMARK   83  A    between atoms: _183  and  _186
REMARK   84  A    between atoms: _186  and  _187
REMARK   85  A    between atoms: _187  and  _189
REMARK   86  A    between atoms: _189  and  MN_338
REMARK   87  A    between atoms: _190  and  _192
REMARK   88  A    between atoms: _192  and  _193
REMARK   89  A    between atoms: _192  and  _195
REMARK   90  A    between atoms: _195  and  _196
REMARK   91  A    between atoms: _199  and  _201
REMARK   92  A    between atoms: _201  and  _202
REMARK   93  A    between atoms: _201  and  _204
REMARK   94  A    between atoms: _204  and  _205
REMARK   95  A    between atoms: _208  and  _210
REMARK   96  A    between atoms: _210  and  _211
REMARK   97  A    between atoms: _210  and  _213
REMARK   98  A    between atoms: _213  and  _214
REMARK   99  A    between atoms: _214  and  _215
REMARK  100  A    between atoms: _215  and  _216
REMARK  101  A    between atoms: _216  and  _217
REMARK  102  A    between atoms: _221  and  _223
REMARK  103  A    between atoms: _223  and  _224
REMARK  104  A    between atoms: _223  and  _226
REMARK  105  A    between atoms: _226  and  _227
REMARK  106  A    between atoms: _232  and  _234
REMARK  107  A    between atoms: _234  and  _235
REMARK  108  A    between atoms: _234  and  _237
REMARK  109  A    between atoms: _237  and  _238
REMARK  110  A    between atoms: _238  and  _239
REMARK  111  A    between atoms: _244  and  _246
REMARK  112  A    between atoms: _246  and  _247
REMARK  113  A    between atoms: _246  and  _249
REMARK  114  A    between atoms: _249  and  _250
REMARK  115  A    between atoms: _252  and  _254
REMARK  116  A    between atoms: _254  and  _255
REMARK  117  A    between atoms: _254  and  _257
REMARK  118  A    between atoms: _257  and  _258
REMARK  119  A    between atoms: _263  and  _265
REMARK  120  A    between atoms: _265  and  _266
REMARK  121  A    between atoms: _265  and  _268
REMARK  122  A    between atoms: _268  and  _269
REMARK  123  A    between atoms: _269  and  _270
REMARK  124  A    between atoms: _270  and  _271
REMARK  125  A    between atoms: _280  and  _282
REMARK  126  A    between atoms: _282  and  _283
REMARK  127  A    between atoms: _282  and  _285
REMARK  128  A    between atoms: _285  and  _286
REMARK  129  A    between atoms: _288  and  _290
REMARK  130  A    between atoms: _290  and  _291
REMARK  131  A    between atoms: _293  and  _295
REMARK  132  A    between atoms: _295  and  _296
REMARK  133  A    between atoms: _295  and  _298
REMARK  134  A    between atoms: _298  and  _299
REMARK  135  A    between atoms: _299  and  _300
REMARK  136  A    between atoms: _303  and  _305
REMARK  137  A    between atoms: _305  and  _306
REMARK  138  A    between atoms: _305  and  _308
REMARK  139  A    between atoms: _308  and  _309
REMARK  140  A    between atoms: _309  and  _310
REMARK  141  A    between atoms: _310  and  _311
REMARK  142  A    between atoms: _311  and  _312
REMARK  143  A    between atoms: _316  and  _318
REMARK  144  A    between atoms: _318  and  _319
REMARK  145  A    between atoms: _321  and  _323
REMARK  146  A    between atoms: _323  and  _324
REMARK  147  A    between atoms: _323  and  _326
REMARK  148  A    between atoms: _326  and  _327
REMARK  149  A    between atoms: _327  and  _328
REMARK  150  A    between atoms: _328  and  _329
REMARK                            x       y       z     vdW  Elec       q    Type
REMARK                         _______ _______ _______ _____ _____    ______ ____
ROOT
ATOM      1  O   HOH     1      30.337  75.704   9.962  0.00  0.00    +0.000 OA
ENDROOT
TORSDOF 0
REMARK  Name = ../refined-set-2016/1pdz/1pdz_pocket.pdb
REMARK  150 active torsions:
REMARK  status: ('A' for Active; 'I' for Inactive)
REMARK    1  A    between atoms: _1  and  _3
REMARK    2  A    between atoms: _3  and  _4
REMARK    3  A    between atoms: _3  and  _6
REMARK    4  A    between atoms: _6  and  _7
REMARK    5  A    between atoms: _7  and  _8
REMARK    6  A    between atoms: _8  and  _9
REMARK    7  A    between atoms: _19  and  _20
REMARK    8  A    between atoms: _25  and  _27
REMARK    9  A    between atoms: _27  and  _28
REMARK   10  A    between atoms: _27  and  _30
REMARK   11  A    between atoms: _30  and  _31
REMARK   12  A    between atoms: _33  and  _35
REMARK   13  A    between atoms: _35  and  _36
REMARK   14  A    between atoms: _38  and  _40
REMARK   15  A    between atoms: _40  and  _41
REMARK   16  A    between atoms: _44  and  _46
REMARK   17  A    between atoms: _46  and  _47
REMARK   18  A    between atoms: _46  and  _49
REMARK   19  A    between atoms: _49  and  _50
REMARK   20  A    between atoms: _50  and  _51
REMARK   21  A    between atoms: _54  and  _56
REMARK   22  A    between atoms: _56  and  _57
REMARK   23  A    between atoms: _56  and  _59
REMARK   24  A    between atoms: _59  and  _60
REMARK   25  A    between atoms: _60  and  _61
REMARK   26  A    between atoms: _64  and  _66
REMARK   27  A    between atoms: _66  and  _67
REMARK   28  A    between atoms: _66  and  _69
REMARK   29  A    between atoms: _69  and  _70
REMARK   30  A    between atoms: _70  and  _71
REMARK   31  A    between atoms: _71  and  _72
REMARK   32  A    between atoms: _81  and  _83
REMARK   33  A    between atoms: _83  and  _84
REMARK   34  A    between atoms: _83  and  _86
REMARK   35  A    between atoms: _86  and  _87
REMARK   36  A    between atoms: _92  and  _94
REMARK   37  A    between atoms: _94  and  _95
REMARK   38  A    between atoms: _94  and  _97
REMARK   39  A    between atoms: _97  and  _98
REMARK   40  A    between atoms: _100  and  _102
REMARK   41  A    between atoms: _102  and  _103
REMARK   42  A    between atoms: _102  and  _105
REMARK   43  A    between atoms: _105  and  _106
REMARK   44  A    between atoms: _111  and  _113
REMARK   45  A    between atoms: _113  and  _114
REMARK   46  A    between atoms: _113  and  _116
REMARK   47  A    between atoms: _116  and  _117
REMARK   48  A    between atoms: _117  and  _118
REMARK   49  A    between atoms: _123  and  _125
REMARK   50  A    between atoms: _125  and  _126
REMARK   51  A    between atoms: _125  and  _128
REMARK   52  A    between atoms: _128  and  _129
REMARK   53  A    between atoms: _129  and  _130
REMARK   54  A    between atoms: _133  and  _135
REMARK   55  A    between atoms: _135  and  _136
REMARK   56  A    between atoms: _135  and  _138
REMARK   57  A    between atoms: _138  and  _139
REMARK   58  A    between atoms: _142  and  _144
REMARK   59  A    between atoms: _144  and  _145
REMARK   60  A    between atoms: _144  and  _147
REMARK   61  A    between atoms: _147  and  _148
REMARK   62  A    between atoms: _148  and  _149
REMARK   63  A    between atoms: _152  and  _154
REMARK   64  A    between atoms: _154  and  _155
REMARK   65  A    between atoms: _154  and  _157
REMARK   66  A    between atoms: _157  and  _158
REMARK   67  A    between atoms: _158  and  _160
REMARK   68  A    between atoms: _160  and  MN_338
REMARK   69  A    between atoms: _161  and  _163
REMARK   70  A    between atoms: _163  and  _164
REMARK   71  A    between atoms: _163  and  _166
REMARK   72  A    between atoms: _166  and  _167
REMARK   73  A    between atoms: _167  and  _168
REMARK   74  A    between atoms: _171  and  _173
REMARK   75  A    between atoms: _173  and  _174
REMARK   76  A    between atoms: _173  and  _176
REMARK   77  A    between atoms: _176  and  _177
REMARK   78  A    between atoms: _177  and  _178
REMARK   79  A    between atoms: _178  and  _180
REMARK   80  A    between atoms: _180  and  MN_338
REMARK   81  A    between atoms: _181  and  _183
REMARK   82  A    between atoms: _183  and  _184
REMARK   83  A    between atoms: _183  and  _186
REMARK   84  A    between atoms: _186  and  _187
REMARK   85  A    between atoms: _187  and  _189
REMARK   86  A    between atoms: _189  and  MN_338
REMARK   87  A    between atoms: _190  and  _192
REMARK   88  A    between atoms: _192  and  _193
REMARK   89  A    between atoms: _192  and  _195
REMARK   90  A    between atoms: _195  and  _196
REMARK   91  A    between atoms: _199  and  _201
REMARK   92  A    between atoms: _201  and  _202
REMARK   93  A    between atoms: _201  and  _204
REMARK   94  A    between atoms: _204  and  _205
REMARK   95  A    between atoms: _208  and  _210
REMARK   96  A    between atoms: _210  and  _211
REMARK   97  A    between atoms: _210  and  _213
REMARK   98  A    between atoms: _213  and  _214
REMARK   99  A    between atoms: _214  and  _215
REMARK  100  A    between atoms: _215  and  _216
REMARK  101  A    between atoms: _216  and  _217
REMARK  102  A    between atoms: _221  and  _223
REMARK  103  A    between atoms: _223  and  _224
REMARK  104  A    between atoms: _223  and  _226
REMARK  105  A    between atoms: _226  and  _227
REMARK  106  A    between atoms: _232  and  _234
REMARK  107  A    between atoms: _234  and  _235
REMARK  108  A    between atoms: _234  and  _237
REMARK  109  A    between atoms: _237  and  _238
REMARK  110  A    between atoms: _238  and  _239
REMARK  111  A    between atoms: _244  and  _246
REMARK  112  A    between atoms: _246  and  _247
REMARK  113  A    between atoms: _246  and  _249
REMARK  114  A    between atoms: _249  and  _250
REMARK  115  A    between atoms: _252  and  _254
REMARK  116  A    between atoms: _254  and  _255
REMARK  117  A    between atoms: _254  and  _257
REMARK  118  A    between atoms: _257  and  _258
REMARK  119  A    between atoms: _263  and  _265
REMARK  120  A    between atoms: _265  and  _266
REMARK  121  A    between atoms: _265  and  _268
REMARK  122  A    between atoms: _268  and  _269
REMARK  123  A    between atoms: _269  and  _270
REMARK  124  A    between atoms: _270  and  _271
REMARK  125  A    between atoms: _280  and  _282
REMARK  126  A    between atoms: _282  and  _283
REMARK  127  A    between atoms: _282  and  _285
REMARK  128  A    between atoms: _285  and  _286
REMARK  129  A    between atoms: _288  and  _290
REMARK  130  A    between atoms: _290  and  _291
REMARK  131  A    between atoms: _293  and  _295
REMARK  132  A    between atoms: _295  and  _296
REMARK  133  A    between atoms: _295  and  _298
REMARK  134  A    between atoms: _298  and  _299
REMARK  135  A    between atoms: _299  and  _300
REMARK  136  A    between atoms: _303  and  _305
REMARK  137  A    between atoms: _305  and  _306
REMARK  138  A    between atoms: _305  and  _308
REMARK  139  A    between atoms: _308  and  _309
REMARK  140  A    between atoms: _309  and  _310
REMARK  141  A    between atoms: _310  and  _311
REMARK  142  A    between atoms: _311  and  _312
REMARK  143  A    between atoms: _316  and  _318
REMARK  144  A    between atoms: _318  and  _319
REMARK  145  A    between atoms: _321  and  _323
REMARK  146  A    between atoms: _323  and  _324
REMARK  147  A    between atoms: _323  and  _326
REMARK  148  A    between atoms: _326  and  _327
REMARK  149  A    between atoms: _327  and  _328
REMARK  150  A    between atoms: _328  and  _329
REMARK                            x       y       z     vdW  Elec       q    Type
REMARK                         _______ _______ _______ _____ _____    ______ ____
ROOT
ATOM      1  O   HOH     1      23.314  70.125  16.113  0.00  0.00    +0.000 OA
ENDROOT
TORSDOF 0
REMARK  Name = ../refined-set-2016/1pdz/1pdz_pocket.pdb
REMARK  150 active torsions:
REMARK  status: ('A' for Active; 'I' for Inactive)
REMARK    1  A    between atoms: _1  and  _3
REMARK    2  A    between atoms: _3  and  _4
REMARK    3  A    between atoms: _3  and  _6
REMARK    4  A    between atoms: _6  and  _7
REMARK    5  A    between atoms: _7  and  _8
REMARK    6  A    between atoms: _8  and  _9
REMARK    7  A    between atoms: _19  and  _20
REMARK    8  A    between atoms: _25  and  _27
REMARK    9  A    between atoms: _27  and  _28
REMARK   10  A    between atoms: _27  and  _30
REMARK   11  A    between atoms: _30  and  _31
REMARK   12  A    between atoms: _33  and  _35
REMARK   13  A    between atoms: _35  and  _36
REMARK   14  A    between atoms: _38  and  _40
REMARK   15  A    between atoms: _40  and  _41
REMARK   16  A    between atoms: _44  and  _46
REMARK   17  A    between atoms: _46  and  _47
REMARK   18  A    between atoms: _46  and  _49
REMARK   19  A    between atoms: _49  and  _50
REMARK   20  A    between atoms: _50  and  _51
REMARK   21  A    between atoms: _54  and  _56
REMARK   22  A    between atoms: _56  and  _57
REMARK   23  A    between atoms: _56  and  _59
REMARK   24  A    between atoms: _59  and  _60
REMARK   25  A    between atoms: _60  and  _61
REMARK   26  A    between atoms: _64  and  _66
REMARK   27  A    between atoms: _66  and  _67
REMARK   28  A    between atoms: _66  and  _69
REMARK   29  A    between atoms: _69  and  _70
REMARK   30  A    between atoms: _70  and  _71
REMARK   31  A    between atoms: _71  and  _72
REMARK   32  A    between atoms: _81  and  _83
REMARK   33  A    between atoms: _83  and  _84
REMARK   34  A    between atoms: _83  and  _86
REMARK   35  A    between atoms: _86  and  _87
REMARK   36  A    between atoms: _92  and  _94
REMARK   37  A    between atoms: _94  and  _95
REMARK   38  A    between atoms: _94  and  _97
REMARK   39  A    between atoms: _97  and  _98
REMARK   40  A    between atoms: _100  and  _102
REMARK   41  A    between atoms: _102  and  _103
REMARK   42  A    between atoms: _102  and  _105
REMARK   43  A    between atoms: _105  and  _106
REMARK   44  A    between atoms: _111  and  _113
REMARK   45  A    between atoms: _113  and  _114
REMARK   46  A    between atoms: _113  and  _116
REMARK   47  A    between atoms: _116  and  _117
REMARK   48  A    between atoms: _117  and  _118
REMARK   49  A    between atoms: _123  and  _125
REMARK   50  A    between atoms: _125  and  _126
REMARK   51  A    between atoms: _125  and  _128
REMARK   52  A    between atoms: _128  and  _129
REMARK   53  A    between atoms: _129  and  _130
REMARK   54  A    between atoms: _133  and  _135
REMARK   55  A    between atoms: _135  and  _136
REMARK   56  A    between atoms: _135  and  _138
REMARK   57  A    between atoms: _138  and  _139
REMARK   58  A    between atoms: _142  and  _144
REMARK   59  A    between atoms: _144  and  _145
REMARK   60  A    between atoms: _144  and  _147
REMARK   61  A    between atoms: _147  and  _148
REMARK   62  A    between atoms: _148  and  _149
REMARK   63  A    between atoms: _152  and  _154
REMARK   64  A    between atoms: _154  and  _155
REMARK   65  A    between atoms: _154  and  _157
REMARK   66  A    between atoms: _157  and  _158
REMARK   67  A    between atoms: _158  and  _160
REMARK   68  A    between atoms: _160  and  MN_338
REMARK   69  A    between atoms: _161  and  _163
REMARK   70  A    between atoms: _163  and  _164
REMARK   71  A    between atoms: _163  and  _166
REMARK   72  A    between atoms: _166  and  _167
REMARK   73  A    between atoms: _167  and  _168
REMARK   74  A    between atoms: _171  and  _173
REMARK   75  A    between atoms: _173  and  _174
REMARK   76  A    between atoms: _173  and  _176
REMARK   77  A    between atoms: _176  and  _177
REMARK   78  A    between atoms: _177  and  _178
REMARK   79  A    between atoms: _178  and  _180
REMARK   80  A    between atoms: _180  and  MN_338
REMARK   81  A    between atoms: _181  and  _183
REMARK   82  A    between atoms: _183  and  _184
REMARK   83  A    between atoms: _183  and  _186
REMARK   84  A    between atoms: _186  and  _187
REMARK   85  A    between atoms: _187  and  _189
REMARK   86  A    between atoms: _189  and  MN_338
REMARK   87  A    between atoms: _190  and  _192
REMARK   88  A    between atoms: _192  and  _193
REMARK   89  A    between atoms: _192  and  _195
REMARK   90  A    between atoms: _195  and  _196
REMARK   91  A    between atoms: _199  and  _201
REMARK   92  A    between atoms: _201  and  _202
REMARK   93  A    between atoms: _201  and  _204
REMARK   94  A    between atoms: _204  and  _205
REMARK   95  A    between atoms: _208  and  _210
REMARK   96  A    between atoms: _210  and  _211
REMARK   97  A    between atoms: _210  and  _213
REMARK   98  A    between atoms: _213  and  _214
REMARK   99  A    between atoms: _214  and  _215
REMARK  100  A    between atoms: _215  and  _216
REMARK  101  A    between atoms: _216  and  _217
REMARK  102  A    between atoms: _221  and  _223
REMARK  103  A    between atoms: _223  and  _224
REMARK  104  A    between atoms: _223  and  _226
REMARK  105  A    between atoms: _226  and  _227
REMARK  106  A    between atoms: _232  and  _234
REMARK  107  A    between atoms: _234  and  _235
REMARK  108  A    between atoms: _234  and  _237
REMARK  109  A    between atoms: _237  and  _238
REMARK  110  A    between atoms: _238  and  _239
REMARK  111  A    between atoms: _244  and  _246
REMARK  112  A    between atoms: _246  and  _247
REMARK  113  A    between atoms: _246  and  _249
REMARK  114  A    between atoms: _249  and  _250
REMARK  115  A    between atoms: _252  and  _254
REMARK  116  A    between atoms: _254  and  _255
REMARK  117  A    between atoms: _254  and  _257
REMARK  118  A    between atoms: _257  and  _258
REMARK  119  A    between atoms: _263  and  _265
REMARK  120  A    between atoms: _265  and  _266
REMARK  121  A    between atoms: _265  and  _268
REMARK  122  A    between atoms: _268  and  _269
REMARK  123  A    between atoms: _269  and  _270
REMARK  124  A    between atoms: _270  and  _271
REMARK  125  A    between atoms: _280  and  _282
REMARK  126  A    between atoms: _282  and  _283
REMARK  127  A    between atoms: _282  and  _285
REMARK  128  A    between atoms: _285  and  _286
REMARK  129  A    between atoms: _288  and  _290
REMARK  130  A    between atoms: _290  and  _291
REMARK  131  A    between atoms: _293  and  _295
REMARK  132  A    between atoms: _295  and  _296
REMARK  133  A    between atoms: _295  and  _298
REMARK  134  A    between atoms: _298  and  _299
REMARK  135  A    between atoms: _299  and  _300
REMARK  136  A    between atoms: _303  and  _305
REMARK  137  A    between atoms: _305  and  _306
REMARK  138  A    between atoms: _305  and  _308
REMARK  139  A    between atoms: _308  and  _309
REMARK  140  A    between atoms: _309  and  _310
REMARK  141  A    between atoms: _310  and  _311
REMARK  142  A    between atoms: _311  and  _312
REMARK  143  A    between atoms: _316  and  _318
REMARK  144  A    between atoms: _318  and  _319
REMARK  145  A    between atoms: _321  and  _323
REMARK  146  A    between atoms: _323  and  _324
REMARK  147  A    between atoms: _323  and  _326
REMARK  148  A    between atoms: _326  and  _327
REMARK  149  A    between atoms: _327  and  _328
REMARK  150  A    between atoms: _328  and  _329
REMARK                            x       y       z     vdW  Elec       q    Type
REMARK                         _______ _______ _______ _____ _____    ______ ____
ROOT
ATOM      1  O   HOH     1      26.825  71.907  17.653  0.00  0.00    +0.000 OA
ENDROOT
TORSDOF 0
REMARK  Name = ../refined-set-2016/1pdz/1pdz_pocket.pdb
REMARK  150 active torsions:
REMARK  status: ('A' for Active; 'I' for Inactive)
REMARK    1  A    between atoms: _1  and  _3
REMARK    2  A    between atoms: _3  and  _4
REMARK    3  A    between atoms: _3  and  _6
REMARK    4  A    between atoms: _6  and  _7
REMARK    5  A    between atoms: _7  and  _8
REMARK    6  A    between atoms: _8  and  _9
REMARK    7  A    between atoms: _19  and  _20
REMARK    8  A    between atoms: _25  and  _27
REMARK    9  A    between atoms: _27  and  _28
REMARK   10  A    between atoms: _27  and  _30
REMARK   11  A    between atoms: _30  and  _31
REMARK   12  A    between atoms: _33  and  _35
REMARK   13  A    between atoms: _35  and  _36
REMARK   14  A    between atoms: _38  and  _40
REMARK   15  A    between atoms: _40  and  _41
REMARK   16  A    between atoms: _44  and  _46
REMARK   17  A    between atoms: _46  and  _47
REMARK   18  A    between atoms: _46  and  _49
REMARK   19  A    between atoms: _49  and  _50
REMARK   20  A    between atoms: _50  and  _51
REMARK   21  A    between atoms: _54  and  _56
REMARK   22  A    between atoms: _56  and  _57
REMARK   23  A    between atoms: _56  and  _59
REMARK   24  A    between atoms: _59  and  _60
REMARK   25  A    between atoms: _60  and  _61
REMARK   26  A    between atoms: _64  and  _66
REMARK   27  A    between atoms: _66  and  _67
REMARK   28  A    between atoms: _66  and  _69
REMARK   29  A    between atoms: _69  and  _70
REMARK   30  A    between atoms: _70  and  _71
REMARK   31  A    between atoms: _71  and  _72
REMARK   32  A    between atoms: _81  and  _83
REMARK   33  A    between atoms: _83  and  _84
REMARK   34  A    between atoms: _83  and  _86
REMARK   35  A    between atoms: _86  and  _87
REMARK   36  A    between atoms: _92  and  _94
REMARK   37  A    between atoms: _94  and  _95
REMARK   38  A    between atoms: _94  and  _97
REMARK   39  A    between atoms: _97  and  _98
REMARK   40  A    between atoms: _100  and  _102
REMARK   41  A    between atoms: _102  and  _103
REMARK   42  A    between atoms: _102  and  _105
REMARK   43  A    between atoms: _105  and  _106
REMARK   44  A    between atoms: _111  and  _113
REMARK   45  A    between atoms: _113  and  _114
REMARK   46  A    between atoms: _113  and  _116
REMARK   47  A    between atoms: _116  and  _117
REMARK   48  A    between atoms: _117  and  _118
REMARK   49  A    between atoms: _123  and  _125
REMARK   50  A    between atoms: _125  and  _126
REMARK   51  A    between atoms: _125  and  _128
REMARK   52  A    between atoms: _128  and  _129
REMARK   53  A    between atoms: _129  and  _130
REMARK   54  A    between atoms: _133  and  _135
REMARK   55  A    between atoms: _135  and  _136
REMARK   56  A    between atoms: _135  and  _138
REMARK   57  A    between atoms: _138  and  _139
REMARK   58  A    between atoms: _142  and  _144
REMARK   59  A    between atoms: _144  and  _145
REMARK   60  A    between atoms: _144  and  _147
REMARK   61  A    between atoms: _147  and  _148
REMARK   62  A    between atoms: _148  and  _149
REMARK   63  A    between atoms: _152  and  _154
REMARK   64  A    between atoms: _154  and  _155
REMARK   65  A    between atoms: _154  and  _157
REMARK   66  A    between atoms: _157  and  _158
REMARK   67  A    between atoms: _158  and  _160
REMARK   68  A    between atoms: _160  and  MN_338
REMARK   69  A    between atoms: _161  and  _163
REMARK   70  A    between atoms: _163  and  _164
REMARK   71  A    between atoms: _163  and  _166
REMARK   72  A    between atoms: _166  and  _167
REMARK   73  A    between atoms: _167  and  _168
REMARK   74  A    between atoms: _171  and  _173
REMARK   75  A    between atoms: _173  and  _174
REMARK   76  A    between atoms: _173  and  _176
REMARK   77  A    between atoms: _176  and  _177
REMARK   78  A    between atoms: _177  and  _178
REMARK   79  A    between atoms: _178  and  _180
REMARK   80  A    between atoms: _180  and  MN_338
REMARK   81  A    between atoms: _181  and  _183
REMARK   82  A    between atoms: _183  and  _184
REMARK   83  A    between atoms: _183  and  _186
REMARK   84  A    between atoms: _186  and  _187
REMARK   85  A    between atoms: _187  and  _189
REMARK   86  A    between atoms: _189  and  MN_338
REMARK   87  A    between atoms: _190  and  _192
REMARK   88  A    between atoms: _192  and  _193
REMARK   89  A    between atoms: _192  and  _195
REMARK   90  A    between atoms: _195  and  _196
REMARK   91  A    between atoms: _199  and  _201
REMARK   92  A    between atoms: _201  and  _202
REMARK   93  A    between atoms: _201  and  _204
REMARK   94  A    between atoms: _204  and  _205
REMARK   95  A    between atoms: _208  and  _210
REMARK   96  A    between atoms: _210  and  _211
REMARK   97  A    between atoms: _210  and  _213
REMARK   98  A    between atoms: _213  and  _214
REMARK   99  A    between atoms: _214  and  _215
REMARK  100  A    between atoms: _215  and  _216
REMARK  101  A    between atoms: _216  and  _217
REMARK  102  A    between atoms: _221  and  _223
REMARK  103  A    between atoms: _223  and  _224
REMARK  104  A    between atoms: _223  and  _226
REMARK  105  A    between atoms: _226  and  _227
REMARK  106  A    between atoms: _232  and  _234
REMARK  107  A    between atoms: _234  and  _235
REMARK  108  A    between atoms: _234  and  _237
REMARK  109  A    between atoms: _237  and  _238
REMARK  110  A    between atoms: _238  and  _239
REMARK  111  A    between atoms: _244  and  _246
REMARK  112  A    between atoms: _246  and  _247
REMARK  113  A    between atoms: _246  and  _249
REMARK  114  A    between atoms: _249  and  _250
REMARK  115  A    between atoms: _252  and  _254
REMARK  116  A    between atoms: _254  and  _255
REMARK  117  A    between atoms: _254  and  _257
REMARK  118  A    between atoms: _257  and  _258
REMARK  119  A    between atoms: _263  and  _265
REMARK  120  A    between atoms: _265  and  _266
REMARK  121  A    between atoms: _265  and  _268
REMARK  122  A    between atoms: _268  and  _269
REMARK  123  A    between atoms: _269  and  _270
REMARK  124  A    between atoms: _270  and  _271
REMARK  125  A    between atoms: _280  and  _282
REMARK  126  A    between atoms: _282  and  _283
REMARK  127  A    between atoms: _282  and  _285
REMARK  128  A    between atoms: _285  and  _286
REMARK  129  A    between atoms: _288  and  _290
REMARK  130  A    between atoms: _290  and  _291
REMARK  131  A    between atoms: _293  and  _295
REMARK  132  A    between atoms: _295  and  _296
REMARK  133  A    between atoms: _295  and  _298
REMARK  134  A    between atoms: _298  and  _299
REMARK  135  A    between atoms: _299  and  _300
REMARK  136  A    between atoms: _303  and  _305
REMARK  137  A    between atoms: _305  and  _306
REMARK  138  A    between atoms: _305  and  _308
REMARK  139  A    between atoms: _308  and  _309
REMARK  140  A    between atoms: _309  and  _310
REMARK  141  A    between atoms: _310  and  _311
REMARK  142  A    between atoms: _311  and  _312
REMARK  143  A    between atoms: _316  and  _318
REMARK  144  A    between atoms: _318  and  _319
REMARK  145  A    between atoms: _321  and  _323
REMARK  146  A    between atoms: _323  and  _324
REMARK  147  A    between atoms: _323  and  _326
REMARK  148  A    between atoms: _326  and  _327
REMARK  149  A    between atoms: _327  and  _328
REMARK  150  A    between atoms: _328  and  _329
REMARK                            x       y       z     vdW  Elec       q    Type
REMARK                         _______ _______ _______ _____ _____    ______ ____
ROOT
ATOM      1  O   HOH     1      33.698  66.967  14.822  0.00  0.00    +0.000 OA
ENDROOT
TORSDOF 0
