REMARK  Name = ../refined-set-2016/4lm1/4lm1_pocket.pdb
REMARK  113 active torsions:
REMARK  status: ('A' for Active; 'I' for Inactive)
REMARK    1  A    between atoms: _1  and  _3
REMARK    2  A    between atoms: _3  and  _4
REMARK    3  A    between atoms: _3  and  _6
REMARK    4  A    between atoms: _6  and  _7
REMARK    5  A    between atoms: _12  and  _13
REMARK    6  A    between atoms: _15  and  _17
REMARK    7  A    between atoms: _17  and  _18
REMARK    8  A    between atoms: _17  and  _20
REMARK    9  A    between atoms: _20  and  _21
REMARK   10  A    between atoms: _26  and  _28
REMARK   11  A    between atoms: _28  and  _29
REMARK   12  A    between atoms: _28  and  _31
REMARK   13  A    between atoms: _31  and  _32
REMARK   14  A    between atoms: _36  and  NI_277
REMARK   15  A    between atoms: _37  and  _39
REMARK   16  A    between atoms: _39  and  _40
REMARK   17  A    between atoms: _39  and  _42
REMARK   18  A    between atoms: _42  and  _43
REMARK   19  A    between atoms: _46  and  _48
REMARK   20  A    between atoms: _48  and  _49
REMARK   21  A    between atoms: _48  and  _51
REMARK   22  A    between atoms: _51  and  _52
REMARK   23  A    between atoms: _55  and  _57
REMARK   24  A    between atoms: _57  and  _58
REMARK   25  A    between atoms: _57  and  _60
REMARK   26  A    between atoms: _60  and  _61
REMARK   27  A    between atoms: _61  and  _63
REMARK   28  A    between atoms: _63  and  NI_277
REMARK   29  A    between atoms: _64  and  _66
REMARK   30  A    between atoms: _66  and  _67
REMARK   31  A    between atoms: _66  and  _69
REMARK   32  A    between atoms: _69  and  _70
REMARK   33  A    between atoms: _73  and  _75
REMARK   34  A    between atoms: _75  and  _76
REMARK   35  A    between atoms: _75  and  _78
REMARK   36  A    between atoms: _80  and  _82
REMARK   37  A    between atoms: _82  and  _83
REMARK   38  A    between atoms: _82  and  _85
REMARK   39  A    between atoms: _85  and  _86
REMARK   40  A    between atoms: _88  and  _90
REMARK   41  A    between atoms: _90  and  _91
REMARK   42  A    between atoms: _90  and  _93
REMARK   43  A    between atoms: _96  and  _98
REMARK   44  A    between atoms: _98  and  _99
REMARK   45  A    between atoms: _98  and  _101
REMARK   46  A    between atoms: _101  and  _102
REMARK   47  A    between atoms: _105  and  _107
REMARK   48  A    between atoms: _107  and  _108
REMARK   49  A    between atoms: _107  and  _110
REMARK   50  A    between atoms: _110  and  _111
REMARK   51  A    between atoms: _114  and  _116
REMARK   52  A    between atoms: _116  and  _117
REMARK   53  A    between atoms: _120  and  _122
REMARK   54  A    between atoms: _122  and  _123
REMARK   55  A    between atoms: _122  and  _125
REMARK   56  A    between atoms: _125  and  _126
REMARK   57  A    between atoms: _129  and  _131
REMARK   58  A    between atoms: _131  and  _132
REMARK   59  A    between atoms: _131  and  _134
REMARK   60  A    between atoms: _134  and  _135
REMARK   61  A    between atoms: _140  and  _141
REMARK   62  A    between atoms: _143  and  _145
REMARK   63  A    between atoms: _145  and  _146
REMARK   64  A    between atoms: _145  and  _148
REMARK   65  A    between atoms: _148  and  _149
REMARK   66  A    between atoms: _155  and  _157
REMARK   67  A    between atoms: _157  and  _158
REMARK   68  A    between atoms: _157  and  _160
REMARK   69  A    between atoms: _160  and  _161
REMARK   70  A    between atoms: _164  and  _166
REMARK   71  A    between atoms: _166  and  _167
REMARK   72  A    between atoms: _166  and  _169
REMARK   73  A    between atoms: _169  and  _170
REMARK   74  A    between atoms: _170  and  _171
REMARK   75  A    between atoms: _173  and  _175
REMARK   76  A    between atoms: _175  and  _176
REMARK   77  A    between atoms: _175  and  _178
REMARK   78  A    between atoms: _178  and  _179
REMARK   79  A    between atoms: _179  and  _180
REMARK   80  A    between atoms: _182  and  _184
REMARK   81  A    between atoms: _184  and  _185
REMARK   82  A    between atoms: _184  and  _187
REMARK   83  A    between atoms: _190  and  _192
REMARK   84  A    between atoms: _192  and  _193
REMARK   85  A    between atoms: _195  and  _197
REMARK   86  A    between atoms: _197  and  _198
REMARK   87  A    between atoms: _197  and  _200
REMARK   88  A    between atoms: _200  and  _201
REMARK   89  A    between atoms: _201  and  _202
REMARK   90  A    between atoms: _207  and  _209
REMARK   91  A    between atoms: _209  and  _210
REMARK   92  A    between atoms: _209  and  _212
REMARK   93  A    between atoms: _212  and  _213
REMARK   94  A    between atoms: _216  and  _218
REMARK   95  A    between atoms: _218  and  _219
REMARK   96  A    between atoms: _221  and  _223
REMARK   97  A    between atoms: _223  and  _224
REMARK   98  A    between atoms: _223  and  _226
REMARK   99  A    between atoms: _226  and  _227
REMARK  100  A    between atoms: _233  and  _235
REMARK  101  A    between atoms: _235  and  _236
REMARK  102  A    between atoms: _235  and  _238
REMARK  103  A    between atoms: _238  and  _239
REMARK  104  A    between atoms: _244  and  _245
REMARK  105  A    between atoms: _247  and  _249
REMARK  106  A    between atoms: _249  and  _250
REMARK  107  A    between atoms: _249  and  _252
REMARK  108  A    between atoms: _255  and  _257
REMARK  109  A    between atoms: _257  and  _258
REMARK  110  A    between atoms: _261  and  _263
REMARK  111  A    between atoms: _263  and  _264
REMARK  112  A    between atoms: _263  and  _266
REMARK  113  A    between atoms: _266  and  _267
REMARK                            x       y       z     vdW  Elec       q    Type
REMARK                         _______ _______ _______ _____ _____    ______ ____
ROOT
ATOM      1  C   TYR A   1      14.038  12.503  47.789  0.00  0.00    +0.239 C 
ATOM      2  O   TYR A   1      13.652  12.201  48.916  0.00  0.00    -0.274 OA
ATOM      3  N   HIS A   2      14.594  11.619  46.953  0.00  0.00    -0.298 N 
ATOM      4  H   HIS A   2      15.022  11.953  46.066  0.00  0.00    +0.150 HD
ENDROOT
BRANCH   1   5
ATOM      5  CA  TYR A   1      13.890  13.957  47.315  0.00  0.00    +0.149 C 
BRANCH   5   6
ATOM      6  N   TYR A   1      15.084  14.540  46.728  0.00  0.00    -0.238 NA
ATOM      7  H   TYR A   1      15.522  14.081  45.904  0.00  0.00    +0.142 HD
ENDBRANCH   5   6
BRANCH   5   8
ATOM      8  CB  TYR A   1      12.724  14.092  46.342  0.00  0.00    +0.053 C 
BRANCH   8   9
ATOM      9  CG  TYR A   1      11.447  13.488  46.879  0.00  0.00    -0.020 A 
ATOM     10  CD2 TYR A   1      10.744  14.122  47.908  0.00  0.00    -0.001 A 
ATOM     11  CE2 TYR A   1       9.567  13.559  48.414  0.00  0.00    +0.036 A 
ATOM     12  CZ  TYR A   1       9.131  12.356  47.916  0.00  0.00    +0.134 A 
ATOM     13  CE1 TYR A   1       9.822  11.699  46.919  0.00  0.00    +0.036 A 
ATOM     14  CD1 TYR A   1      10.994  12.276  46.404  0.00  0.00    -0.001 A 
BRANCH  12  15
ATOM     15  OH  TYR A   1       7.948  11.779  48.397  0.00  0.00    -0.506 OA
ATOM     16  HH  TYR A   1       7.564  12.356  49.104  0.00  0.00    +0.292 HD
ENDBRANCH  12  15
ENDBRANCH   8   9
ENDBRANCH   5   8
ENDBRANCH   1   5
BRANCH   3  17
ATOM     17  CA  HIS A   2      14.610  10.167  47.270  0.00  0.00    +0.143 C 
BRANCH  17  18
ATOM     18  C   HIS A   2      15.763   9.859  48.186  0.00  0.00    +0.227 C 
ATOM     19  O   HIS A   2      16.681   9.144  47.814  0.00  0.00    -0.286 OA
ENDBRANCH  17  18
BRANCH  17  20
ATOM     20  CB  HIS A   2      14.607   9.323  46.017  0.00  0.00    +0.075 C 
BRANCH  20  21
ATOM     21  CG  HIS A   2      13.288   9.330  45.296  0.00  0.00    +0.082 A 
ATOM     22  CD2 HIS A   2      12.116   8.694  45.554  0.00  0.00    +0.115 A 
ATOM     23  NE2 HIS A   2      11.218   9.093  44.590  0.00  0.00    -0.221 NA
ATOM     24  CE1 HIS A   2      11.822   9.910  43.754  0.00  0.00    +0.199 A 
ATOM     25  ND1 HIS A   2      13.072  10.088  44.169  0.00  0.00    -0.227 NA
ENDBRANCH  20  21
ENDBRANCH  17  20
ENDBRANCH   3  17
TORSDOF 9
REMARK  Name = ../refined-set-2016/4lm1/4lm1_pocket.pdb
REMARK  113 active torsions:
REMARK  status: ('A' for Active; 'I' for Inactive)
REMARK    1  A    between atoms: _1  and  _3
REMARK    2  A    between atoms: _3  and  _4
REMARK    3  A    between atoms: _3  and  _6
REMARK    4  A    between atoms: _6  and  _7
REMARK    5  A    between atoms: _12  and  _13
REMARK    6  A    between atoms: _15  and  _17
REMARK    7  A    between atoms: _17  and  _18
REMARK    8  A    between atoms: _17  and  _20
REMARK    9  A    between atoms: _20  and  _21
REMARK   10  A    between atoms: _26  and  _28
REMARK   11  A    between atoms: _28  and  _29
REMARK   12  A    between atoms: _28  and  _31
REMARK   13  A    between atoms: _31  and  _32
REMARK   14  A    between atoms: _36  and  NI_277
REMARK   15  A    between atoms: _37  and  _39
REMARK   16  A    between atoms: _39  and  _40
REMARK   17  A    between atoms: _39  and  _42
REMARK   18  A    between atoms: _42  and  _43
REMARK   19  A    between atoms: _46  and  _48
REMARK   20  A    between atoms: _48  and  _49
REMARK   21  A    between atoms: _48  and  _51
REMARK   22  A    between atoms: _51  and  _52
REMARK   23  A    between atoms: _55  and  _57
REMARK   24  A    between atoms: _57  and  _58
REMARK   25  A    between atoms: _57  and  _60
REMARK   26  A    between atoms: _60  and  _61
REMARK   27  A    between atoms: _61  and  _63
REMARK   28  A    between atoms: _63  and  NI_277
REMARK   29  A    between atoms: _64  and  _66
REMARK   30  A    between atoms: _66  and  _67
REMARK   31  A    between atoms: _66  and  _69
REMARK   32  A    between atoms: _69  and  _70
REMARK   33  A    between atoms: _73  and  _75
REMARK   34  A    between atoms: _75  and  _76
REMARK   35  A    between atoms: _75  and  _78
REMARK   36  A    between atoms: _80  and  _82
REMARK   37  A    between atoms: _82  and  _83
REMARK   38  A    between atoms: _82  and  _85
REMARK   39  A    between atoms: _85  and  _86
REMARK   40  A    between atoms: _88  and  _90
REMARK   41  A    between atoms: _90  and  _91
REMARK   42  A    between atoms: _90  and  _93
REMARK   43  A    between atoms: _96  and  _98
REMARK   44  A    between atoms: _98  and  _99
REMARK   45  A    between atoms: _98  and  _101
REMARK   46  A    between atoms: _101  and  _102
REMARK   47  A    between atoms: _105  and  _107
REMARK   48  A    between atoms: _107  and  _108
REMARK   49  A    between atoms: _107  and  _110
REMARK   50  A    between atoms: _110  and  _111
REMARK   51  A    between atoms: _114  and  _116
REMARK   52  A    between atoms: _116  and  _117
REMARK   53  A    between atoms: _120  and  _122
REMARK   54  A    between atoms: _122  and  _123
REMARK   55  A    between atoms: _122  and  _125
REMARK   56  A    between atoms: _125  and  _126
REMARK   57  A    between atoms: _129  and  _131
REMARK   58  A    between atoms: _131  and  _132
REMARK   59  A    between atoms: _131  and  _134
REMARK   60  A    between atoms: _134  and  _135
REMARK   61  A    between atoms: _140  and  _141
REMARK   62  A    between atoms: _143  and  _145
REMARK   63  A    between atoms: _145  and  _146
REMARK   64  A    between atoms: _145  and  _148
REMARK   65  A    between atoms: _148  and  _149
REMARK   66  A    between atoms: _155  and  _157
REMARK   67  A    between atoms: _157  and  _158
REMARK   68  A    between atoms: _157  and  _160
REMARK   69  A    between atoms: _160  and  _161
REMARK   70  A    between atoms: _164  and  _166
REMARK   71  A    between atoms: _166  and  _167
REMARK   72  A    between atoms: _166  and  _169
REMARK   73  A    between atoms: _169  and  _170
REMARK   74  A    between atoms: _170  and  _171
REMARK   75  A    between atoms: _173  and  _175
REMARK   76  A    between atoms: _175  and  _176
REMARK   77  A    between atoms: _175  and  _178
REMARK   78  A    between atoms: _178  and  _179
REMARK   79  A    between atoms: _179  and  _180
REMARK   80  A    between atoms: _182  and  _184
REMARK   81  A    between atoms: _184  and  _185
REMARK   82  A    between atoms: _184  and  _187
REMARK   83  A    between atoms: _190  and  _192
REMARK   84  A    between atoms: _192  and  _193
REMARK   85  A    between atoms: _195  and  _197
REMARK   86  A    between atoms: _197  and  _198
REMARK   87  A    between atoms: _197  and  _200
REMARK   88  A    between atoms: _200  and  _201
REMARK   89  A    between atoms: _201  and  _202
REMARK   90  A    between atoms: _207  and  _209
REMARK   91  A    between atoms: _209  and  _210
REMARK   92  A    between atoms: _209  and  _212
REMARK   93  A    between atoms: _212  and  _213
REMARK   94  A    between atoms: _216  and  _218
REMARK   95  A    between atoms: _218  and  _219
REMARK   96  A    between atoms: _221  and  _223
REMARK   97  A    between atoms: _223  and  _224
REMARK   98  A    between atoms: _223  and  _226
REMARK   99  A    between atoms: _226  and  _227
REMARK  100  A    between atoms: _233  and  _235
REMARK  101  A    between atoms: _235  and  _236
REMARK  102  A    between atoms: _235  and  _238
REMARK  103  A    between atoms: _238  and  _239
REMARK  104  A    between atoms: _244  and  _245
REMARK  105  A    between atoms: _247  and  _249
REMARK  106  A    between atoms: _249  and  _250
REMARK  107  A    between atoms: _249  and  _252
REMARK  108  A    between atoms: _255  and  _257
REMARK  109  A    between atoms: _257  and  _258
REMARK  110  A    between atoms: _261  and  _263
REMARK  111  A    between atoms: _263  and  _264
REMARK  112  A    between atoms: _263  and  _266
REMARK  113  A    between atoms: _266  and  _267
REMARK                            x       y       z     vdW  Elec       q    Type
REMARK                         _______ _______ _______ _____ _____    ______ ____
ROOT
ATOM      1  CA  LEU A   2       3.075   9.237  49.209  0.00  0.00    +0.000 C 
ENDROOT
BRANCH   1   2
ATOM      2  C   LEU A   2       2.783  10.229  50.353  0.00  0.00    +0.000 C 
ATOM      3  N   CYS A   3       3.178   9.911  51.603  0.00  0.00    +0.000 N 
ATOM      4  H   CYS A   3       3.912   9.191  51.761  0.00  0.00    +0.000 HD
ATOM      5  O   LEU A   2       2.260  11.301  50.065  0.00  0.00    +0.000 OA
BRANCH   3   6
ATOM      6  CA  CYS A   3       2.542  10.611  52.750  0.00  0.00    +0.000 C 
BRANCH   6   7
ATOM      7  C   CYS A   3       2.871  12.089  52.875  0.00  0.00    +0.000 C 
ATOM      8  O   CYS A   3       2.203  12.799  53.623  0.00  0.00    +0.000 OA
ATOM      9  N   SER A   4       3.890  12.568  52.154  0.00  0.00    +0.000 N 
ATOM     10  H   SER A   4       4.544  11.920  51.670  0.00  0.00    +0.000 HD
BRANCH   9  11
ATOM     11  CA  SER A   4       4.072  14.018  52.055  0.00  0.00    +0.000 C 
BRANCH  11  12
ATOM     12  C   SER A   4       2.806  14.771  51.681  0.00  0.00    +0.000 C 
ATOM     13  O   SER A   4       2.638  15.921  52.089  0.00  0.00    +0.000 OA
ATOM     14  N   VAL A   5       1.910  14.138  50.920  0.00  0.00    +0.000 N 
ATOM     15  H   VAL A   5       2.125  13.194  50.540  0.00  0.00    +0.000 HD
BRANCH  14  16
ATOM     16  CA  VAL A   5       0.642  14.765  50.624  0.00  0.00    +0.000 C 
BRANCH  16  17
ATOM     17  CB  VAL A   5      -0.035  14.223  49.328  0.00  0.00    +0.000 C 
ATOM     18  CG2 VAL A   5      -0.698  12.859  49.573  0.00  0.00    +0.000 C 
ATOM     19  CG1 VAL A   5       0.945  14.187  48.178  0.00  0.00    +0.000 C 
ENDBRANCH  16  17
BRANCH  16  20
ATOM     20  C   VAL A   5      -0.373  14.745  51.758  0.00  0.00    +0.000 C 
ATOM     21  O   VAL A   5      -1.502  15.242  51.591  0.00  0.00    +0.000 OA
ENDBRANCH  16  20
ENDBRANCH  14  16
ENDBRANCH  11  12
BRANCH  11  22
ATOM     22  CB  SER A   4       5.157  14.377  51.033  0.00  0.00    +0.000 C 
BRANCH  22  23
ATOM     23  OG  SER A   4       4.532  14.403  49.743  0.00  0.00    +0.000 OA
ATOM     24  H   SER A   4       5.206  14.633  49.055  0.00  0.00    +0.000 HD
ENDBRANCH  22  23
ENDBRANCH  11  22
ENDBRANCH   9  11
ENDBRANCH   6   7
BRANCH   6  25
ATOM     25  CB  CYS A   3       2.763   9.922  54.103  0.00  0.00    +0.000 C 
ATOM     26  SG  CYS A   3       4.467  10.064  54.667  0.00  0.00    +0.000 S 
ENDBRANCH   6  25
ENDBRANCH   3   6
ENDBRANCH   1   2
BRANCH   1  28
ATOM     27  C   UNK A   1       4.907   7.827  49.804  0.00  0.00    +0.000 C 
ATOM     28  N   LEU A   2       3.598   7.996  49.680  0.00  0.00    +0.000 N 
ATOM     29  H   LEU A   2       2.950   7.221  49.927  0.00  0.00    +0.000 HD
ATOM     30  O   UNK A   1       5.699   8.749  49.609  0.00  0.00    +0.000 OA
BRANCH  27  31
ATOM     31  C   UNK A   1       5.410   6.436  50.191  0.00  0.00    +0.000 C 
BRANCH  31  32
ATOM     32  N   UNK A   1       4.565   5.805  51.182  0.00  0.00    +0.000 NA
ATOM     33  H   UNK A   1       4.147   4.876  50.972  0.00  0.00    +0.000 HD
ENDBRANCH  31  32
BRANCH  31  34
ATOM     34  C   UNK A   1       5.489   5.544  48.943  0.00  0.00    +0.000 C 
BRANCH  34  35
ATOM     35  C   UNK A   1       6.771   5.736  48.135  0.00  0.00    +0.000 C 
ATOM     36  O   UNK A   1       6.769   5.218  46.994  0.00  0.00    +0.000 OA
BRANCH  35  37
ATOM     37  O   UNK A   1       7.774   6.388  48.586  0.00  0.00    +0.000 OA
BRANCH  37  38
ATOM     38 NI   UNK A   1       9.753   6.350  48.059  0.00  0.00    +0.000 Ni
ATOM     39  O   UNK A   1       9.104   5.086  46.413  0.00  0.00    +0.000 OA
BRANCH  38  43
ATOM     40  C   UNK A   1      11.281   9.523  50.541  0.00  0.00    +0.000 A 
ATOM     41  N   UNK A   1       9.940   9.841  50.490  0.00  0.00    +0.000 NA
ATOM     42  C   UNK A   1       9.293   8.904  49.835  0.00  0.00    +0.000 A 
ATOM     43  N   UNK A   1      10.150   7.974  49.469  0.00  0.00    +0.000 N 
ATOM     44  C   UNK A   1      11.422   8.354  49.870  0.00  0.00    +0.000 A 
BRANCH  40  45
ATOM     45  C   UNK A   1      12.264  10.437  51.195  0.00  0.00    +0.000 C 
BRANCH  45  46
ATOM     46  C   UNK A   1      12.106  10.522  52.702  0.00  0.00    +0.000 C 
BRANCH  46  47
ATOM     47  N   UNK A   1      13.329  11.195  53.237  0.00  0.00    +0.000 NA
ATOM     48  H   UNK A   1      14.100  11.469  52.595  0.00  0.00    +0.000 HD
ENDBRANCH  46  47
BRANCH  46  49
ATOM     49  C   UNK A   1      11.980   9.107  53.338  0.00  0.00    +0.000 C 
ATOM     50  O   UNK A   1      10.896   8.719  53.769  0.00  0.00    +0.000 OA
ENDBRANCH  46  49
ENDBRANCH  45  46
ENDBRANCH  40  45
ENDBRANCH  38  43
ENDBRANCH  37  38
ENDBRANCH  35  37
ENDBRANCH  34  35
ENDBRANCH  31  34
ENDBRANCH  27  31
ENDBRANCH   1  28
BRANCH   1  51
ATOM     51  CB  LEU A   2       1.786   8.985  48.393  0.00  0.00    +0.000 C 
BRANCH  51  52
ATOM     52  CG  LEU A   2       2.014   8.146  47.132  0.00  0.00    +0.000 C 
ATOM     53  CD2 LEU A   2       0.648   8.056  46.464  0.00  0.00    +0.000 C 
ATOM     54  CD1 LEU A   2       3.050   8.784  46.212  0.00  0.00    +0.000 C 
ENDBRANCH  51  52
ENDBRANCH   1  51
TORSDOF 25
REMARK  Name = ../refined-set-2016/4lm1/4lm1_pocket.pdb
REMARK  113 active torsions:
REMARK  status: ('A' for Active; 'I' for Inactive)
REMARK    1  A    between atoms: _1  and  _3
REMARK    2  A    between atoms: _3  and  _4
REMARK    3  A    between atoms: _3  and  _6
REMARK    4  A    between atoms: _6  and  _7
REMARK    5  A    between atoms: _12  and  _13
REMARK    6  A    between atoms: _15  and  _17
REMARK    7  A    between atoms: _17  and  _18
REMARK    8  A    between atoms: _17  and  _20
REMARK    9  A    between atoms: _20  and  _21
REMARK   10  A    between atoms: _26  and  _28
REMARK   11  A    between atoms: _28  and  _29
REMARK   12  A    between atoms: _28  and  _31
REMARK   13  A    between atoms: _31  and  _32
REMARK   14  A    between atoms: _36  and  NI_277
REMARK   15  A    between atoms: _37  and  _39
REMARK   16  A    between atoms: _39  and  _40
REMARK   17  A    between atoms: _39  and  _42
REMARK   18  A    between atoms: _42  and  _43
REMARK   19  A    between atoms: _46  and  _48
REMARK   20  A    between atoms: _48  and  _49
REMARK   21  A    between atoms: _48  and  _51
REMARK   22  A    between atoms: _51  and  _52
REMARK   23  A    between atoms: _55  and  _57
REMARK   24  A    between atoms: _57  and  _58
REMARK   25  A    between atoms: _57  and  _60
REMARK   26  A    between atoms: _60  and  _61
REMARK   27  A    between atoms: _61  and  _63
REMARK   28  A    between atoms: _63  and  NI_277
REMARK   29  A    between atoms: _64  and  _66
REMARK   30  A    between atoms: _66  and  _67
REMARK   31  A    between atoms: _66  and  _69
REMARK   32  A    between atoms: _69  and  _70
REMARK   33  A    between atoms: _73  and  _75
REMARK   34  A    between atoms: _75  and  _76
REMARK   35  A    between atoms: _75  and  _78
REMARK   36  A    between atoms: _80  and  _82
REMARK   37  A    between atoms: _82  and  _83
REMARK   38  A    between atoms: _82  and  _85
REMARK   39  A    between atoms: _85  and  _86
REMARK   40  A    between atoms: _88  and  _90
REMARK   41  A    between atoms: _90  and  _91
REMARK   42  A    between atoms: _90  and  _93
REMARK   43  A    between atoms: _96  and  _98
REMARK   44  A    between atoms: _98  and  _99
REMARK   45  A    between atoms: _98  and  _101
REMARK   46  A    between atoms: _101  and  _102
REMARK   47  A    between atoms: _105  and  _107
REMARK   48  A    between atoms: _107  and  _108
REMARK   49  A    between atoms: _107  and  _110
REMARK   50  A    between atoms: _110  and  _111
REMARK   51  A    between atoms: _114  and  _116
REMARK   52  A    between atoms: _116  and  _117
REMARK   53  A    between atoms: _120  and  _122
REMARK   54  A    between atoms: _122  and  _123
REMARK   55  A    between atoms: _122  and  _125
REMARK   56  A    between atoms: _125  and  _126
REMARK   57  A    between atoms: _129  and  _131
REMARK   58  A    between atoms: _131  and  _132
REMARK   59  A    between atoms: _131  and  _134
REMARK   60  A    between atoms: _134  and  _135
REMARK   61  A    between atoms: _140  and  _141
REMARK   62  A    between atoms: _143  and  _145
REMARK   63  A    between atoms: _145  and  _146
REMARK   64  A    between atoms: _145  and  _148
REMARK   65  A    between atoms: _148  and  _149
REMARK   66  A    between atoms: _155  and  _157
REMARK   67  A    between atoms: _157  and  _158
REMARK   68  A    between atoms: _157  and  _160
REMARK   69  A    between atoms: _160  and  _161
REMARK   70  A    between atoms: _164  and  _166
REMARK   71  A    between atoms: _166  and  _167
REMARK   72  A    between atoms: _166  and  _169
REMARK   73  A    between atoms: _169  and  _170
REMARK   74  A    between atoms: _170  and  _171
REMARK   75  A    between atoms: _173  and  _175
REMARK   76  A    between atoms: _175  and  _176
REMARK   77  A    between atoms: _175  and  _178
REMARK   78  A    between atoms: _178  and  _179
REMARK   79  A    between atoms: _179  and  _180
REMARK   80  A    between atoms: _182  and  _184
REMARK   81  A    between atoms: _184  and  _185
REMARK   82  A    between atoms: _184  and  _187
REMARK   83  A    between atoms: _190  and  _192
REMARK   84  A    between atoms: _192  and  _193
REMARK   85  A    between atoms: _195  and  _197
REMARK   86  A    between atoms: _197  and  _198
REMARK   87  A    between atoms: _197  and  _200
REMARK   88  A    between atoms: _200  and  _201
REMARK   89  A    between atoms: _201  and  _202
REMARK   90  A    between atoms: _207  and  _209
REMARK   91  A    between atoms: _209  and  _210
REMARK   92  A    between atoms: _209  and  _212
REMARK   93  A    between atoms: _212  and  _213
REMARK   94  A    between atoms: _216  and  _218
REMARK   95  A    between atoms: _218  and  _219
REMARK   96  A    between atoms: _221  and  _223
REMARK   97  A    between atoms: _223  and  _224
REMARK   98  A    between atoms: _223  and  _226
REMARK   99  A    between atoms: _226  and  _227
REMARK  100  A    between atoms: _233  and  _235
REMARK  101  A    between atoms: _235  and  _236
REMARK  102  A    between atoms: _235  and  _238
REMARK  103  A    between atoms: _238  and  _239
REMARK  104  A    between atoms: _244  and  _245
REMARK  105  A    between atoms: _247  and  _249
REMARK  106  A    between atoms: _249  and  _250
REMARK  107  A    between atoms: _249  and  _252
REMARK  108  A    between atoms: _255  and  _257
REMARK  109  A    between atoms: _257  and  _258
REMARK  110  A    between atoms: _261  and  _263
REMARK  111  A    between atoms: _263  and  _264
REMARK  112  A    between atoms: _263  and  _266
REMARK  113  A    between atoms: _266  and  _267
REMARK                            x       y       z     vdW  Elec       q    Type
REMARK                         _______ _______ _______ _____ _____    ______ ____
ROOT
ATOM      1  CA  LEU A   1       3.549   3.146  41.339  0.00  0.00    +0.133 C 
ENDROOT
BRANCH   1   2
ATOM      2  N   LEU A   1       4.923   2.606  41.611  0.00  0.00    -0.239 NA
ATOM      3  H   LEU A   1       5.756   3.229  41.615  0.00  0.00    +0.142 HD
ENDBRANCH   1   2
BRANCH   1   4
ATOM      4  C   LEU A   1       2.822   2.518  40.150  0.00  0.00    +0.224 C 
ATOM      5  O   LEU A   1       1.575   2.509  40.130  0.00  0.00    -0.287 OA
ENDBRANCH   1   4
BRANCH   1   6
ATOM      6  CB  LEU A   1       3.535   4.678  41.210  0.00  0.00    +0.025 C 
BRANCH   6   7
ATOM      7  CG  LEU A   1       3.570   5.494  42.505  0.00  0.00    +0.002 C 
ATOM      8  CD2 LEU A   1       2.210   5.224  43.342  0.00  0.00    +0.000 C 
ATOM      9  CD1 LEU A   1       3.685   6.975  42.143  0.00  0.00    +0.000 C 
ENDBRANCH   6   7
ENDBRANCH   1   6
TORSDOF 4
REMARK  Name = ../refined-set-2016/4lm1/4lm1_pocket.pdb
REMARK  113 active torsions:
REMARK  status: ('A' for Active; 'I' for Inactive)
REMARK    1  A    between atoms: _1  and  _3
REMARK    2  A    between atoms: _3  and  _4
REMARK    3  A    between atoms: _3  and  _6
REMARK    4  A    between atoms: _6  and  _7
REMARK    5  A    between atoms: _12  and  _13
REMARK    6  A    between atoms: _15  and  _17
REMARK    7  A    between atoms: _17  and  _18
REMARK    8  A    between atoms: _17  and  _20
REMARK    9  A    between atoms: _20  and  _21
REMARK   10  A    between atoms: _26  and  _28
REMARK   11  A    between atoms: _28  and  _29
REMARK   12  A    between atoms: _28  and  _31
REMARK   13  A    between atoms: _31  and  _32
REMARK   14  A    between atoms: _36  and  NI_277
REMARK   15  A    between atoms: _37  and  _39
REMARK   16  A    between atoms: _39  and  _40
REMARK   17  A    between atoms: _39  and  _42
REMARK   18  A    between atoms: _42  and  _43
REMARK   19  A    between atoms: _46  and  _48
REMARK   20  A    between atoms: _48  and  _49
REMARK   21  A    between atoms: _48  and  _51
REMARK   22  A    between atoms: _51  and  _52
REMARK   23  A    between atoms: _55  and  _57
REMARK   24  A    between atoms: _57  and  _58
REMARK   25  A    between atoms: _57  and  _60
REMARK   26  A    between atoms: _60  and  _61
REMARK   27  A    between atoms: _61  and  _63
REMARK   28  A    between atoms: _63  and  NI_277
REMARK   29  A    between atoms: _64  and  _66
REMARK   30  A    between atoms: _66  and  _67
REMARK   31  A    between atoms: _66  and  _69
REMARK   32  A    between atoms: _69  and  _70
REMARK   33  A    between atoms: _73  and  _75
REMARK   34  A    between atoms: _75  and  _76
REMARK   35  A    between atoms: _75  and  _78
REMARK   36  A    between atoms: _80  and  _82
REMARK   37  A    between atoms: _82  and  _83
REMARK   38  A    between atoms: _82  and  _85
REMARK   39  A    between atoms: _85  and  _86
REMARK   40  A    between atoms: _88  and  _90
REMARK   41  A    between atoms: _90  and  _91
REMARK   42  A    between atoms: _90  and  _93
REMARK   43  A    between atoms: _96  and  _98
REMARK   44  A    between atoms: _98  and  _99
REMARK   45  A    between atoms: _98  and  _101
REMARK   46  A    between atoms: _101  and  _102
REMARK   47  A    between atoms: _105  and  _107
REMARK   48  A    between atoms: _107  and  _108
REMARK   49  A    between atoms: _107  and  _110
REMARK   50  A    between atoms: _110  and  _111
REMARK   51  A    between atoms: _114  and  _116
REMARK   52  A    between atoms: _116  and  _117
REMARK   53  A    between atoms: _120  and  _122
REMARK   54  A    between atoms: _122  and  _123
REMARK   55  A    between atoms: _122  and  _125
REMARK   56  A    between atoms: _125  and  _126
REMARK   57  A    between atoms: _129  and  _131
REMARK   58  A    between atoms: _131  and  _132
REMARK   59  A    between atoms: _131  and  _134
REMARK   60  A    between atoms: _134  and  _135
REMARK   61  A    between atoms: _140  and  _141
REMARK   62  A    between atoms: _143  and  _145
REMARK   63  A    between atoms: _145  and  _146
REMARK   64  A    between atoms: _145  and  _148
REMARK   65  A    between atoms: _148  and  _149
REMARK   66  A    between atoms: _155  and  _157
REMARK   67  A    between atoms: _157  and  _158
REMARK   68  A    between atoms: _157  and  _160
REMARK   69  A    between atoms: _160  and  _161
REMARK   70  A    between atoms: _164  and  _166
REMARK   71  A    between atoms: _166  and  _167
REMARK   72  A    between atoms: _166  and  _169
REMARK   73  A    between atoms: _169  and  _170
REMARK   74  A    between atoms: _170  and  _171
REMARK   75  A    between atoms: _173  and  _175
REMARK   76  A    between atoms: _175  and  _176
REMARK   77  A    between atoms: _175  and  _178
REMARK   78  A    between atoms: _178  and  _179
REMARK   79  A    between atoms: _179  and  _180
REMARK   80  A    between atoms: _182  and  _184
REMARK   81  A    between atoms: _184  and  _185
REMARK   82  A    between atoms: _184  and  _187
REMARK   83  A    between atoms: _190  and  _192
REMARK   84  A    between atoms: _192  and  _193
REMARK   85  A    between atoms: _195  and  _197
REMARK   86  A    between atoms: _197  and  _198
REMARK   87  A    between atoms: _197  and  _200
REMARK   88  A    between atoms: _200  and  _201
REMARK   89  A    between atoms: _201  and  _202
REMARK   90  A    between atoms: _207  and  _209
REMARK   91  A    between atoms: _209  and  _210
REMARK   92  A    between atoms: _209  and  _212
REMARK   93  A    between atoms: _212  and  _213
REMARK   94  A    between atoms: _216  and  _218
REMARK   95  A    between atoms: _218  and  _219
REMARK   96  A    between atoms: _221  and  _223
REMARK   97  A    between atoms: _223  and  _224
REMARK   98  A    between atoms: _223  and  _226
REMARK   99  A    between atoms: _226  and  _227
REMARK  100  A    between atoms: _233  and  _235
REMARK  101  A    between atoms: _235  and  _236
REMARK  102  A    between atoms: _235  and  _238
REMARK  103  A    between atoms: _238  and  _239
REMARK  104  A    between atoms: _244  and  _245
REMARK  105  A    between atoms: _247  and  _249
REMARK  106  A    between atoms: _249  and  _250
REMARK  107  A    between atoms: _249  and  _252
REMARK  108  A    between atoms: _255  and  _257
REMARK  109  A    between atoms: _257  and  _258
REMARK  110  A    between atoms: _261  and  _263
REMARK  111  A    between atoms: _263  and  _264
REMARK  112  A    between atoms: _263  and  _266
REMARK  113  A    between atoms: _266  and  _267
REMARK                            x       y       z     vdW  Elec       q    Type
REMARK                         _______ _______ _______ _____ _____    ______ ____
ROOT
ATOM      1  CA  THR A   1       1.724   3.289  48.614  0.00  0.00    +0.160 C 
ENDROOT
BRANCH   1   2
ATOM      2  N   THR A   1       2.028   2.104  49.412  0.00  0.00    -0.237 NA
ATOM      3  H   THR A   1       1.453   1.244  49.310  0.00  0.00    +0.142 HD
ENDBRANCH   1   2
BRANCH   1   4
ATOM      4  C   THR A   1       1.386   4.483  49.478  0.00  0.00    +0.227 C 
ATOM      5  O   THR A   1       1.930   5.580  49.282  0.00  0.00    -0.287 OA
ENDBRANCH   1   4
BRANCH   1   6
ATOM      6  CB  THR A   1       0.511   3.051  47.640  0.00  0.00    +0.134 C 
ATOM      7  CG2 THR A   1       0.345   4.263  46.718  0.00  0.00    +0.034 C 
BRANCH   6   8
ATOM      8  OG1 THR A   1       0.764   1.877  46.857  0.00  0.00    -0.383 OA
ATOM      9  HG1 THR A   1       1.594   2.004  46.332  0.00  0.00    +0.210 HD
ENDBRANCH   6   8
ENDBRANCH   1   6
TORSDOF 4
REMARK  Name = ../refined-set-2016/4lm1/4lm1_pocket.pdb
REMARK  113 active torsions:
REMARK  status: ('A' for Active; 'I' for Inactive)
REMARK    1  A    between atoms: _1  and  _3
REMARK    2  A    between atoms: _3  and  _4
REMARK    3  A    between atoms: _3  and  _6
REMARK    4  A    between atoms: _6  and  _7
REMARK    5  A    between atoms: _12  and  _13
REMARK    6  A    between atoms: _15  and  _17
REMARK    7  A    between atoms: _17  and  _18
REMARK    8  A    between atoms: _17  and  _20
REMARK    9  A    between atoms: _20  and  _21
REMARK   10  A    between atoms: _26  and  _28
REMARK   11  A    between atoms: _28  and  _29
REMARK   12  A    between atoms: _28  and  _31
REMARK   13  A    between atoms: _31  and  _32
REMARK   14  A    between atoms: _36  and  NI_277
REMARK   15  A    between atoms: _37  and  _39
REMARK   16  A    between atoms: _39  and  _40
REMARK   17  A    between atoms: _39  and  _42
REMARK   18  A    between atoms: _42  and  _43
REMARK   19  A    between atoms: _46  and  _48
REMARK   20  A    between atoms: _48  and  _49
REMARK   21  A    between atoms: _48  and  _51
REMARK   22  A    between atoms: _51  and  _52
REMARK   23  A    between atoms: _55  and  _57
REMARK   24  A    between atoms: _57  and  _58
REMARK   25  A    between atoms: _57  and  _60
REMARK   26  A    between atoms: _60  and  _61
REMARK   27  A    between atoms: _61  and  _63
REMARK   28  A    between atoms: _63  and  NI_277
REMARK   29  A    between atoms: _64  and  _66
REMARK   30  A    between atoms: _66  and  _67
REMARK   31  A    between atoms: _66  and  _69
REMARK   32  A    between atoms: _69  and  _70
REMARK   33  A    between atoms: _73  and  _75
REMARK   34  A    between atoms: _75  and  _76
REMARK   35  A    between atoms: _75  and  _78
REMARK   36  A    between atoms: _80  and  _82
REMARK   37  A    between atoms: _82  and  _83
REMARK   38  A    between atoms: _82  and  _85
REMARK   39  A    between atoms: _85  and  _86
REMARK   40  A    between atoms: _88  and  _90
REMARK   41  A    between atoms: _90  and  _91
REMARK   42  A    between atoms: _90  and  _93
REMARK   43  A    between atoms: _96  and  _98
REMARK   44  A    between atoms: _98  and  _99
REMARK   45  A    between atoms: _98  and  _101
REMARK   46  A    between atoms: _101  and  _102
REMARK   47  A    between atoms: _105  and  _107
REMARK   48  A    between atoms: _107  and  _108
REMARK   49  A    between atoms: _107  and  _110
REMARK   50  A    between atoms: _110  and  _111
REMARK   51  A    between atoms: _114  and  _116
REMARK   52  A    between atoms: _116  and  _117
REMARK   53  A    between atoms: _120  and  _122
REMARK   54  A    between atoms: _122  and  _123
REMARK   55  A    between atoms: _122  and  _125
REMARK   56  A    between atoms: _125  and  _126
REMARK   57  A    between atoms: _129  and  _131
REMARK   58  A    between atoms: _131  and  _132
REMARK   59  A    between atoms: _131  and  _134
REMARK   60  A    between atoms: _134  and  _135
REMARK   61  A    between atoms: _140  and  _141
REMARK   62  A    between atoms: _143  and  _145
REMARK   63  A    between atoms: _145  and  _146
REMARK   64  A    between atoms: _145  and  _148
REMARK   65  A    between atoms: _148  and  _149
REMARK   66  A    between atoms: _155  and  _157
REMARK   67  A    between atoms: _157  and  _158
REMARK   68  A    between atoms: _157  and  _160
REMARK   69  A    between atoms: _160  and  _161
REMARK   70  A    between atoms: _164  and  _166
REMARK   71  A    between atoms: _166  and  _167
REMARK   72  A    between atoms: _166  and  _169
REMARK   73  A    between atoms: _169  and  _170
REMARK   74  A    between atoms: _170  and  _171
REMARK   75  A    between atoms: _173  and  _175
REMARK   76  A    between atoms: _175  and  _176
REMARK   77  A    between atoms: _175  and  _178
REMARK   78  A    between atoms: _178  and  _179
REMARK   79  A    between atoms: _179  and  _180
REMARK   80  A    between atoms: _182  and  _184
REMARK   81  A    between atoms: _184  and  _185
REMARK   82  A    between atoms: _184  and  _187
REMARK   83  A    between atoms: _190  and  _192
REMARK   84  A    between atoms: _192  and  _193
REMARK   85  A    between atoms: _195  and  _197
REMARK   86  A    between atoms: _197  and  _198
REMARK   87  A    between atoms: _197  and  _200
REMARK   88  A    between atoms: _200  and  _201
REMARK   89  A    between atoms: _201  and  _202
REMARK   90  A    between atoms: _207  and  _209
REMARK   91  A    between atoms: _209  and  _210
REMARK   92  A    between atoms: _209  and  _212
REMARK   93  A    between atoms: _212  and  _213
REMARK   94  A    between atoms: _216  and  _218
REMARK   95  A    between atoms: _218  and  _219
REMARK   96  A    between atoms: _221  and  _223
REMARK   97  A    between atoms: _223  and  _224
REMARK   98  A    between atoms: _223  and  _226
REMARK   99  A    between atoms: _226  and  _227
REMARK  100  A    between atoms: _233  and  _235
REMARK  101  A    between atoms: _235  and  _236
REMARK  102  A    between atoms: _235  and  _238
REMARK  103  A    between atoms: _238  and  _239
REMARK  104  A    between atoms: _244  and  _245
REMARK  105  A    between atoms: _247  and  _249
REMARK  106  A    between atoms: _249  and  _250
REMARK  107  A    between atoms: _249  and  _252
REMARK  108  A    between atoms: _255  and  _257
REMARK  109  A    between atoms: _257  and  _258
REMARK  110  A    between atoms: _261  and  _263
REMARK  111  A    between atoms: _263  and  _264
REMARK  112  A    between atoms: _263  and  _266
REMARK  113  A    between atoms: _266  and  _267
REMARK                            x       y       z     vdW  Elec       q    Type
REMARK                         _______ _______ _______ _____ _____    ______ ____
ROOT
ATOM      1  CA  THR A   1       3.520  19.378  51.688  0.00  0.00    +0.160 C 
ENDROOT
BRANCH   1   2
ATOM      2  N   THR A   1       3.733  19.957  52.983  0.00  0.00    -0.237 NA
ATOM      3  H   THR A   1       2.922  20.165  53.600  0.00  0.00    +0.142 HD
ENDBRANCH   1   2
BRANCH   1   4
ATOM      4  CB  THR A   1       1.999  19.210  51.520  0.00  0.00    +0.134 C 
ATOM      5  CG2 THR A   1       1.672  18.677  50.154  0.00  0.00    +0.034 C 
BRANCH   4   6
ATOM      6  OG1 THR A   1       1.576  18.270  52.508  0.00  0.00    -0.383 OA
ATOM      7  HG1 THR A   1       2.043  17.409  52.364  0.00  0.00    +0.210 HD
ENDBRANCH   4   6
ENDBRANCH   1   4
BRANCH   1   8
ATOM      8  C   THR A   1       4.092  20.202  50.529  0.00  0.00    +0.227 C 
ATOM      9  O   THR A   1       4.674  19.645  49.583  0.00  0.00    -0.287 OA
ENDBRANCH   1   8
TORSDOF 4
REMARK  Name = ../refined-set-2016/4lm1/4lm1_pocket.pdb
REMARK  113 active torsions:
REMARK  status: ('A' for Active; 'I' for Inactive)
REMARK    1  A    between atoms: _1  and  _3
REMARK    2  A    between atoms: _3  and  _4
REMARK    3  A    between atoms: _3  and  _6
REMARK    4  A    between atoms: _6  and  _7
REMARK    5  A    between atoms: _12  and  _13
REMARK    6  A    between atoms: _15  and  _17
REMARK    7  A    between atoms: _17  and  _18
REMARK    8  A    between atoms: _17  and  _20
REMARK    9  A    between atoms: _20  and  _21
REMARK   10  A    between atoms: _26  and  _28
REMARK   11  A    between atoms: _28  and  _29
REMARK   12  A    between atoms: _28  and  _31
REMARK   13  A    between atoms: _31  and  _32
REMARK   14  A    between atoms: _36  and  NI_277
REMARK   15  A    between atoms: _37  and  _39
REMARK   16  A    between atoms: _39  and  _40
REMARK   17  A    between atoms: _39  and  _42
REMARK   18  A    between atoms: _42  and  _43
REMARK   19  A    between atoms: _46  and  _48
REMARK   20  A    between atoms: _48  and  _49
REMARK   21  A    between atoms: _48  and  _51
REMARK   22  A    between atoms: _51  and  _52
REMARK   23  A    between atoms: _55  and  _57
REMARK   24  A    between atoms: _57  and  _58
REMARK   25  A    between atoms: _57  and  _60
REMARK   26  A    between atoms: _60  and  _61
REMARK   27  A    between atoms: _61  and  _63
REMARK   28  A    between atoms: _63  and  NI_277
REMARK   29  A    between atoms: _64  and  _66
REMARK   30  A    between atoms: _66  and  _67
REMARK   31  A    between atoms: _66  and  _69
REMARK   32  A    between atoms: _69  and  _70
REMARK   33  A    between atoms: _73  and  _75
REMARK   34  A    between atoms: _75  and  _76
REMARK   35  A    between atoms: _75  and  _78
REMARK   36  A    between atoms: _80  and  _82
REMARK   37  A    between atoms: _82  and  _83
REMARK   38  A    between atoms: _82  and  _85
REMARK   39  A    between atoms: _85  and  _86
REMARK   40  A    between atoms: _88  and  _90
REMARK   41  A    between atoms: _90  and  _91
REMARK   42  A    between atoms: _90  and  _93
REMARK   43  A    between atoms: _96  and  _98
REMARK   44  A    between atoms: _98  and  _99
REMARK   45  A    between atoms: _98  and  _101
REMARK   46  A    between atoms: _101  and  _102
REMARK   47  A    between atoms: _105  and  _107
REMARK   48  A    between atoms: _107  and  _108
REMARK   49  A    between atoms: _107  and  _110
REMARK   50  A    between atoms: _110  and  _111
REMARK   51  A    between atoms: _114  and  _116
REMARK   52  A    between atoms: _116  and  _117
REMARK   53  A    between atoms: _120  and  _122
REMARK   54  A    between atoms: _122  and  _123
REMARK   55  A    between atoms: _122  and  _125
REMARK   56  A    between atoms: _125  and  _126
REMARK   57  A    between atoms: _129  and  _131
REMARK   58  A    between atoms: _131  and  _132
REMARK   59  A    between atoms: _131  and  _134
REMARK   60  A    between atoms: _134  and  _135
REMARK   61  A    between atoms: _140  and  _141
REMARK   62  A    between atoms: _143  and  _145
REMARK   63  A    between atoms: _145  and  _146
REMARK   64  A    between atoms: _145  and  _148
REMARK   65  A    between atoms: _148  and  _149
REMARK   66  A    between atoms: _155  and  _157
REMARK   67  A    between atoms: _157  and  _158
REMARK   68  A    between atoms: _157  and  _160
REMARK   69  A    between atoms: _160  and  _161
REMARK   70  A    between atoms: _164  and  _166
REMARK   71  A    between atoms: _166  and  _167
REMARK   72  A    between atoms: _166  and  _169
REMARK   73  A    between atoms: _169  and  _170
REMARK   74  A    between atoms: _170  and  _171
REMARK   75  A    between atoms: _173  and  _175
REMARK   76  A    between atoms: _175  and  _176
REMARK   77  A    between atoms: _175  and  _178
REMARK   78  A    between atoms: _178  and  _179
REMARK   79  A    between atoms: _179  and  _180
REMARK   80  A    between atoms: _182  and  _184
REMARK   81  A    between atoms: _184  and  _185
REMARK   82  A    between atoms: _184  and  _187
REMARK   83  A    between atoms: _190  and  _192
REMARK   84  A    between atoms: _192  and  _193
REMARK   85  A    between atoms: _195  and  _197
REMARK   86  A    between atoms: _197  and  _198
REMARK   87  A    between atoms: _197  and  _200
REMARK   88  A    between atoms: _200  and  _201
REMARK   89  A    between atoms: _201  and  _202
REMARK   90  A    between atoms: _207  and  _209
REMARK   91  A    between atoms: _209  and  _210
REMARK   92  A    between atoms: _209  and  _212
REMARK   93  A    between atoms: _212  and  _213
REMARK   94  A    between atoms: _216  and  _218
REMARK   95  A    between atoms: _218  and  _219
REMARK   96  A    between atoms: _221  and  _223
REMARK   97  A    between atoms: _223  and  _224
REMARK   98  A    between atoms: _223  and  _226
REMARK   99  A    between atoms: _226  and  _227
REMARK  100  A    between atoms: _233  and  _235
REMARK  101  A    between atoms: _235  and  _236
REMARK  102  A    between atoms: _235  and  _238
REMARK  103  A    between atoms: _238  and  _239
REMARK  104  A    between atoms: _244  and  _245
REMARK  105  A    between atoms: _247  and  _249
REMARK  106  A    between atoms: _249  and  _250
REMARK  107  A    between atoms: _249  and  _252
REMARK  108  A    between atoms: _255  and  _257
REMARK  109  A    between atoms: _257  and  _258
REMARK  110  A    between atoms: _261  and  _263
REMARK  111  A    between atoms: _263  and  _264
REMARK  112  A    between atoms: _263  and  _266
REMARK  113  A    between atoms: _266  and  _267
REMARK                            x       y       z     vdW  Elec       q    Type
REMARK                         _______ _______ _______ _____ _____    ______ ____
ROOT
ATOM      1  C   THR A   1       8.160  18.664  48.369  0.00  0.00    +0.241 C 
ATOM      2  N   ALA A   2       7.011  19.136  47.868  0.00  0.00    -0.298 N 
ATOM      3  H   ALA A   2       6.244  19.433  48.505  0.00  0.00    +0.150 HD
ATOM      4  O   THR A   1       8.979  18.114  47.661  0.00  0.00    -0.274 OA
ENDROOT
BRANCH   2   5
ATOM      5  CA  ALA A   2       6.841  19.232  46.398  0.00  0.00    +0.137 C 
ATOM      6  CB  ALA A   2       5.528  19.905  46.048  0.00  0.00    +0.030 C 
BRANCH   5   7
ATOM      7  C   ALA A   2       8.053  19.942  45.712  0.00  0.00    +0.227 C 
ATOM      8  O   ALA A   2       8.550  19.507  44.661  0.00  0.00    -0.286 OA
ENDBRANCH   5   7
ENDBRANCH   2   5
BRANCH   1   9
ATOM      9  CA  THR A   1       8.354  18.720  49.902  0.00  0.00    +0.172 C 
BRANCH   9  10
ATOM     10  N   THR A   1       7.946  20.023  50.433  0.00  0.00    -0.236 NA
ATOM     11  H   THR A   1       7.160  20.070  51.113  0.00  0.00    +0.142 HD
ENDBRANCH   9  10
BRANCH   9  12
ATOM     12  CB  THR A   1       7.575  17.568  50.588  0.00  0.00    +0.135 C 
ATOM     13  CG2 THR A   1       8.069  16.218  50.060  0.00  0.00    +0.034 C 
BRANCH  12  14
ATOM     14  OG1 THR A   1       7.801  17.626  51.996  0.00  0.00    -0.383 OA
ATOM     15  HG1 THR A   1       7.484  18.497  52.344  0.00  0.00    +0.210 HD
ENDBRANCH  12  14
ENDBRANCH   9  12
ENDBRANCH   1   9
TORSDOF 6
REMARK  Name = ../refined-set-2016/4lm1/4lm1_pocket.pdb
REMARK  113 active torsions:
REMARK  status: ('A' for Active; 'I' for Inactive)
REMARK    1  A    between atoms: _1  and  _3
REMARK    2  A    between atoms: _3  and  _4
REMARK    3  A    between atoms: _3  and  _6
REMARK    4  A    between atoms: _6  and  _7
REMARK    5  A    between atoms: _12  and  _13
REMARK    6  A    between atoms: _15  and  _17
REMARK    7  A    between atoms: _17  and  _18
REMARK    8  A    between atoms: _17  and  _20
REMARK    9  A    between atoms: _20  and  _21
REMARK   10  A    between atoms: _26  and  _28
REMARK   11  A    between atoms: _28  and  _29
REMARK   12  A    between atoms: _28  and  _31
REMARK   13  A    between atoms: _31  and  _32
REMARK   14  A    between atoms: _36  and  NI_277
REMARK   15  A    between atoms: _37  and  _39
REMARK   16  A    between atoms: _39  and  _40
REMARK   17  A    between atoms: _39  and  _42
REMARK   18  A    between atoms: _42  and  _43
REMARK   19  A    between atoms: _46  and  _48
REMARK   20  A    between atoms: _48  and  _49
REMARK   21  A    between atoms: _48  and  _51
REMARK   22  A    between atoms: _51  and  _52
REMARK   23  A    between atoms: _55  and  _57
REMARK   24  A    between atoms: _57  and  _58
REMARK   25  A    between atoms: _57  and  _60
REMARK   26  A    between atoms: _60  and  _61
REMARK   27  A    between atoms: _61  and  _63
REMARK   28  A    between atoms: _63  and  NI_277
REMARK   29  A    between atoms: _64  and  _66
REMARK   30  A    between atoms: _66  and  _67
REMARK   31  A    between atoms: _66  and  _69
REMARK   32  A    between atoms: _69  and  _70
REMARK   33  A    between atoms: _73  and  _75
REMARK   34  A    between atoms: _75  and  _76
REMARK   35  A    between atoms: _75  and  _78
REMARK   36  A    between atoms: _80  and  _82
REMARK   37  A    between atoms: _82  and  _83
REMARK   38  A    between atoms: _82  and  _85
REMARK   39  A    between atoms: _85  and  _86
REMARK   40  A    between atoms: _88  and  _90
REMARK   41  A    between atoms: _90  and  _91
REMARK   42  A    between atoms: _90  and  _93
REMARK   43  A    between atoms: _96  and  _98
REMARK   44  A    between atoms: _98  and  _99
REMARK   45  A    between atoms: _98  and  _101
REMARK   46  A    between atoms: _101  and  _102
REMARK   47  A    between atoms: _105  and  _107
REMARK   48  A    between atoms: _107  and  _108
REMARK   49  A    between atoms: _107  and  _110
REMARK   50  A    between atoms: _110  and  _111
REMARK   51  A    between atoms: _114  and  _116
REMARK   52  A    between atoms: _116  and  _117
REMARK   53  A    between atoms: _120  and  _122
REMARK   54  A    between atoms: _122  and  _123
REMARK   55  A    between atoms: _122  and  _125
REMARK   56  A    between atoms: _125  and  _126
REMARK   57  A    between atoms: _129  and  _131
REMARK   58  A    between atoms: _131  and  _132
REMARK   59  A    between atoms: _131  and  _134
REMARK   60  A    between atoms: _134  and  _135
REMARK   61  A    between atoms: _140  and  _141
REMARK   62  A    between atoms: _143  and  _145
REMARK   63  A    between atoms: _145  and  _146
REMARK   64  A    between atoms: _145  and  _148
REMARK   65  A    between atoms: _148  and  _149
REMARK   66  A    between atoms: _155  and  _157
REMARK   67  A    between atoms: _157  and  _158
REMARK   68  A    between atoms: _157  and  _160
REMARK   69  A    between atoms: _160  and  _161
REMARK   70  A    between atoms: _164  and  _166
REMARK   71  A    between atoms: _166  and  _167
REMARK   72  A    between atoms: _166  and  _169
REMARK   73  A    between atoms: _169  and  _170
REMARK   74  A    between atoms: _170  and  _171
REMARK   75  A    between atoms: _173  and  _175
REMARK   76  A    between atoms: _175  and  _176
REMARK   77  A    between atoms: _175  and  _178
REMARK   78  A    between atoms: _178  and  _179
REMARK   79  A    between atoms: _179  and  _180
REMARK   80  A    between atoms: _182  and  _184
REMARK   81  A    between atoms: _184  and  _185
REMARK   82  A    between atoms: _184  and  _187
REMARK   83  A    between atoms: _190  and  _192
REMARK   84  A    between atoms: _192  and  _193
REMARK   85  A    between atoms: _195  and  _197
REMARK   86  A    between atoms: _197  and  _198
REMARK   87  A    between atoms: _197  and  _200
REMARK   88  A    between atoms: _200  and  _201
REMARK   89  A    between atoms: _201  and  _202
REMARK   90  A    between atoms: _207  and  _209
REMARK   91  A    between atoms: _209  and  _210
REMARK   92  A    between atoms: _209  and  _212
REMARK   93  A    between atoms: _212  and  _213
REMARK   94  A    between atoms: _216  and  _218
REMARK   95  A    between atoms: _218  and  _219
REMARK   96  A    between atoms: _221  and  _223
REMARK   97  A    between atoms: _223  and  _224
REMARK   98  A    between atoms: _223  and  _226
REMARK   99  A    between atoms: _226  and  _227
REMARK  100  A    between atoms: _233  and  _235
REMARK  101  A    between atoms: _235  and  _236
REMARK  102  A    between atoms: _235  and  _238
REMARK  103  A    between atoms: _238  and  _239
REMARK  104  A    between atoms: _244  and  _245
REMARK  105  A    between atoms: _247  and  _249
REMARK  106  A    between atoms: _249  and  _250
REMARK  107  A    between atoms: _249  and  _252
REMARK  108  A    between atoms: _255  and  _257
REMARK  109  A    between atoms: _257  and  _258
REMARK  110  A    between atoms: _261  and  _263
REMARK  111  A    between atoms: _263  and  _264
REMARK  112  A    between atoms: _263  and  _266
REMARK  113  A    between atoms: _266  and  _267
REMARK                            x       y       z     vdW  Elec       q    Type
REMARK                         _______ _______ _______ _____ _____    ______ ____
ROOT
ATOM      1  CA  TYR A   2      10.288  18.700  41.341  0.00  0.00    +0.141 C 
ENDROOT
BRANCH   1   3
ATOM      2  C   ILE A   1      10.611  16.851  42.864  0.00  0.00    +0.238 C 
ATOM      3  N   TYR A   2      10.185  18.091  42.653  0.00  0.00    -0.298 N 
ATOM      4  H   TYR A   2       9.772  18.632  43.439  0.00  0.00    +0.150 HD
ATOM      5  O   ILE A   1      11.217  16.191  41.985  0.00  0.00    -0.274 OA
BRANCH   2   6
ATOM      6  CA  ILE A   1      10.309  16.277  44.275  0.00  0.00    +0.145 C 
BRANCH   6   7
ATOM      7  N   ILE A   1      10.706  17.247  45.302  0.00  0.00    -0.238 NA
ATOM      8  H   ILE A   1      10.002  17.547  46.006  0.00  0.00    +0.142 HD
ENDBRANCH   6   7
BRANCH   6   9
ATOM      9  CB  ILE A   1       8.733  16.012  44.410  0.00  0.00    +0.025 C 
ATOM     10  CG2 ILE A   1       8.177  15.360  43.240  0.00  0.00    +0.002 C 
BRANCH   9  11
ATOM     11  CG1 ILE A   1       8.395  15.245  45.710  0.00  0.00    +0.002 C 
ATOM     12  CD1 ILE A   1       6.950  15.367  46.225  0.00  0.00    +0.000 C 
ENDBRANCH   9  11
ENDBRANCH   6   9
ENDBRANCH   2   6
ENDBRANCH   1   3
BRANCH   1  13
ATOM     13  C   TYR A   2      11.738  18.983  40.996  0.00  0.00    +0.227 C 
ATOM     14  O   TYR A   2      12.086  18.918  39.829  0.00  0.00    -0.286 OA
ENDBRANCH   1  13
BRANCH   1  15
ATOM     15  CB  TYR A   2       9.418  19.938  41.217  0.00  0.00    +0.054 C 
BRANCH  15  16
ATOM     16  CG  TYR A   2       8.080  19.547  40.730  0.00  0.00    -0.020 A 
ATOM     17  CD2 TYR A   2       7.052  19.246  41.629  0.00  0.00    -0.001 A 
ATOM     18  CE2 TYR A   2       5.814  18.840  41.179  0.00  0.00    +0.036 A 
ATOM     19  CZ  TYR A   2       5.569  18.770  39.818  0.00  0.00    +0.134 A 
ATOM     20  CE1 TYR A   2       6.544  19.054  38.915  0.00  0.00    +0.036 A 
ATOM     21  CD1 TYR A   2       7.824  19.435  39.368  0.00  0.00    -0.001 A 
BRANCH  19  22
ATOM     22  OH  TYR A   2       4.330  18.392  39.400  0.00  0.00    -0.506 OA
ATOM     23  HH  TYR A   2       3.936  19.112  38.846  0.00  0.00    +0.292 HD
ENDBRANCH  19  22
ENDBRANCH  15  16
ENDBRANCH   1  15
TORSDOF 9
REMARK  Name = ../refined-set-2016/4lm1/4lm1_pocket.pdb
REMARK  113 active torsions:
REMARK  status: ('A' for Active; 'I' for Inactive)
REMARK    1  A    between atoms: _1  and  _3
REMARK    2  A    between atoms: _3  and  _4
REMARK    3  A    between atoms: _3  and  _6
REMARK    4  A    between atoms: _6  and  _7
REMARK    5  A    between atoms: _12  and  _13
REMARK    6  A    between atoms: _15  and  _17
REMARK    7  A    between atoms: _17  and  _18
REMARK    8  A    between atoms: _17  and  _20
REMARK    9  A    between atoms: _20  and  _21
REMARK   10  A    between atoms: _26  and  _28
REMARK   11  A    between atoms: _28  and  _29
REMARK   12  A    between atoms: _28  and  _31
REMARK   13  A    between atoms: _31  and  _32
REMARK   14  A    between atoms: _36  and  NI_277
REMARK   15  A    between atoms: _37  and  _39
REMARK   16  A    between atoms: _39  and  _40
REMARK   17  A    between atoms: _39  and  _42
REMARK   18  A    between atoms: _42  and  _43
REMARK   19  A    between atoms: _46  and  _48
REMARK   20  A    between atoms: _48  and  _49
REMARK   21  A    between atoms: _48  and  _51
REMARK   22  A    between atoms: _51  and  _52
REMARK   23  A    between atoms: _55  and  _57
REMARK   24  A    between atoms: _57  and  _58
REMARK   25  A    between atoms: _57  and  _60
REMARK   26  A    between atoms: _60  and  _61
REMARK   27  A    between atoms: _61  and  _63
REMARK   28  A    between atoms: _63  and  NI_277
REMARK   29  A    between atoms: _64  and  _66
REMARK   30  A    between atoms: _66  and  _67
REMARK   31  A    between atoms: _66  and  _69
REMARK   32  A    between atoms: _69  and  _70
REMARK   33  A    between atoms: _73  and  _75
REMARK   34  A    between atoms: _75  and  _76
REMARK   35  A    between atoms: _75  and  _78
REMARK   36  A    between atoms: _80  and  _82
REMARK   37  A    between atoms: _82  and  _83
REMARK   38  A    between atoms: _82  and  _85
REMARK   39  A    between atoms: _85  and  _86
REMARK   40  A    between atoms: _88  and  _90
REMARK   41  A    between atoms: _90  and  _91
REMARK   42  A    between atoms: _90  and  _93
REMARK   43  A    between atoms: _96  and  _98
REMARK   44  A    between atoms: _98  and  _99
REMARK   45  A    between atoms: _98  and  _101
REMARK   46  A    between atoms: _101  and  _102
REMARK   47  A    between atoms: _105  and  _107
REMARK   48  A    between atoms: _107  and  _108
REMARK   49  A    between atoms: _107  and  _110
REMARK   50  A    between atoms: _110  and  _111
REMARK   51  A    between atoms: _114  and  _116
REMARK   52  A    between atoms: _116  and  _117
REMARK   53  A    between atoms: _120  and  _122
REMARK   54  A    between atoms: _122  and  _123
REMARK   55  A    between atoms: _122  and  _125
REMARK   56  A    between atoms: _125  and  _126
REMARK   57  A    between atoms: _129  and  _131
REMARK   58  A    between atoms: _131  and  _132
REMARK   59  A    between atoms: _131  and  _134
REMARK   60  A    between atoms: _134  and  _135
REMARK   61  A    between atoms: _140  and  _141
REMARK   62  A    between atoms: _143  and  _145
REMARK   63  A    between atoms: _145  and  _146
REMARK   64  A    between atoms: _145  and  _148
REMARK   65  A    between atoms: _148  and  _149
REMARK   66  A    between atoms: _155  and  _157
REMARK   67  A    between atoms: _157  and  _158
REMARK   68  A    between atoms: _157  and  _160
REMARK   69  A    between atoms: _160  and  _161
REMARK   70  A    between atoms: _164  and  _166
REMARK   71  A    between atoms: _166  and  _167
REMARK   72  A    between atoms: _166  and  _169
REMARK   73  A    between atoms: _169  and  _170
REMARK   74  A    between atoms: _170  and  _171
REMARK   75  A    between atoms: _173  and  _175
REMARK   76  A    between atoms: _175  and  _176
REMARK   77  A    between atoms: _175  and  _178
REMARK   78  A    between atoms: _178  and  _179
REMARK   79  A    between atoms: _179  and  _180
REMARK   80  A    between atoms: _182  and  _184
REMARK   81  A    between atoms: _184  and  _185
REMARK   82  A    between atoms: _184  and  _187
REMARK   83  A    between atoms: _190  and  _192
REMARK   84  A    between atoms: _192  and  _193
REMARK   85  A    between atoms: _195  and  _197
REMARK   86  A    between atoms: _197  and  _198
REMARK   87  A    between atoms: _197  and  _200
REMARK   88  A    between atoms: _200  and  _201
REMARK   89  A    between atoms: _201  and  _202
REMARK   90  A    between atoms: _207  and  _209
REMARK   91  A    between atoms: _209  and  _210
REMARK   92  A    between atoms: _209  and  _212
REMARK   93  A    between atoms: _212  and  _213
REMARK   94  A    between atoms: _216  and  _218
REMARK   95  A    between atoms: _218  and  _219
REMARK   96  A    between atoms: _221  and  _223
REMARK   97  A    between atoms: _223  and  _224
REMARK   98  A    between atoms: _223  and  _226
REMARK   99  A    between atoms: _226  and  _227
REMARK  100  A    between atoms: _233  and  _235
REMARK  101  A    between atoms: _235  and  _236
REMARK  102  A    between atoms: _235  and  _238
REMARK  103  A    between atoms: _238  and  _239
REMARK  104  A    between atoms: _244  and  _245
REMARK  105  A    between atoms: _247  and  _249
REMARK  106  A    between atoms: _249  and  _250
REMARK  107  A    between atoms: _249  and  _252
REMARK  108  A    between atoms: _255  and  _257
REMARK  109  A    between atoms: _257  and  _258
REMARK  110  A    between atoms: _261  and  _263
REMARK  111  A    between atoms: _263  and  _264
REMARK  112  A    between atoms: _263  and  _266
REMARK  113  A    between atoms: _266  and  _267
REMARK                            x       y       z     vdW  Elec       q    Type
REMARK                         _______ _______ _______ _____ _____    ______ ____
ROOT
ATOM      1  CB  PHE A   1      10.639  16.150  38.147  0.00  0.00    +0.051 C 
ENDROOT
BRANCH   1   2
ATOM      2  CG  PHE A   1       9.730  15.192  38.887  0.00  0.00    -0.020 A 
ATOM      3  CD2 PHE A   1       8.481  15.658  39.333  0.00  0.00    -0.004 A 
ATOM      4  CE2 PHE A   1       7.569  14.824  39.990  0.00  0.00    -0.000 A 
ATOM      5  CZ  PHE A   1       7.920  13.495  40.220  0.00  0.00    -0.000 A 
ATOM      6  CE1 PHE A   1       9.177  13.011  39.771  0.00  0.00    -0.000 A 
ATOM      7  CD1 PHE A   1      10.056  13.870  39.083  0.00  0.00    -0.004 A 
ENDBRANCH   1   2
BRANCH   1   8
ATOM      8  CA  PHE A   1      12.110  15.759  38.112  0.00  0.00    +0.137 C 
BRANCH   8   9
ATOM      9  N   PHE A   1      12.722  15.882  39.413  0.00  0.00    -0.239 NA
ATOM     10  H   PHE A   1      12.172  16.182  40.243  0.00  0.00    +0.142 HD
ENDBRANCH   8   9
BRANCH   8  11
ATOM     11  C   PHE A   1      12.804  16.636  37.064  0.00  0.00    +0.224 C 
ATOM     12  O   PHE A   1      13.024  16.184  35.953  0.00  0.00    -0.287 OA
ENDBRANCH   8  11
ENDBRANCH   1   8
TORSDOF 4
REMARK  Name = ../refined-set-2016/4lm1/4lm1_pocket.pdb
REMARK  113 active torsions:
REMARK  status: ('A' for Active; 'I' for Inactive)
REMARK    1  A    between atoms: _1  and  _3
REMARK    2  A    between atoms: _3  and  _4
REMARK    3  A    between atoms: _3  and  _6
REMARK    4  A    between atoms: _6  and  _7
REMARK    5  A    between atoms: _12  and  _13
REMARK    6  A    between atoms: _15  and  _17
REMARK    7  A    between atoms: _17  and  _18
REMARK    8  A    between atoms: _17  and  _20
REMARK    9  A    between atoms: _20  and  _21
REMARK   10  A    between atoms: _26  and  _28
REMARK   11  A    between atoms: _28  and  _29
REMARK   12  A    between atoms: _28  and  _31
REMARK   13  A    between atoms: _31  and  _32
REMARK   14  A    between atoms: _36  and  NI_277
REMARK   15  A    between atoms: _37  and  _39
REMARK   16  A    between atoms: _39  and  _40
REMARK   17  A    between atoms: _39  and  _42
REMARK   18  A    between atoms: _42  and  _43
REMARK   19  A    between atoms: _46  and  _48
REMARK   20  A    between atoms: _48  and  _49
REMARK   21  A    between atoms: _48  and  _51
REMARK   22  A    between atoms: _51  and  _52
REMARK   23  A    between atoms: _55  and  _57
REMARK   24  A    between atoms: _57  and  _58
REMARK   25  A    between atoms: _57  and  _60
REMARK   26  A    between atoms: _60  and  _61
REMARK   27  A    between atoms: _61  and  _63
REMARK   28  A    between atoms: _63  and  NI_277
REMARK   29  A    between atoms: _64  and  _66
REMARK   30  A    between atoms: _66  and  _67
REMARK   31  A    between atoms: _66  and  _69
REMARK   32  A    between atoms: _69  and  _70
REMARK   33  A    between atoms: _73  and  _75
REMARK   34  A    between atoms: _75  and  _76
REMARK   35  A    between atoms: _75  and  _78
REMARK   36  A    between atoms: _80  and  _82
REMARK   37  A    between atoms: _82  and  _83
REMARK   38  A    between atoms: _82  and  _85
REMARK   39  A    between atoms: _85  and  _86
REMARK   40  A    between atoms: _88  and  _90
REMARK   41  A    between atoms: _90  and  _91
REMARK   42  A    between atoms: _90  and  _93
REMARK   43  A    between atoms: _96  and  _98
REMARK   44  A    between atoms: _98  and  _99
REMARK   45  A    between atoms: _98  and  _101
REMARK   46  A    between atoms: _101  and  _102
REMARK   47  A    between atoms: _105  and  _107
REMARK   48  A    between atoms: _107  and  _108
REMARK   49  A    between atoms: _107  and  _110
REMARK   50  A    between atoms: _110  and  _111
REMARK   51  A    between atoms: _114  and  _116
REMARK   52  A    between atoms: _116  and  _117
REMARK   53  A    between atoms: _120  and  _122
REMARK   54  A    between atoms: _122  and  _123
REMARK   55  A    between atoms: _122  and  _125
REMARK   56  A    between atoms: _125  and  _126
REMARK   57  A    between atoms: _129  and  _131
REMARK   58  A    between atoms: _131  and  _132
REMARK   59  A    between atoms: _131  and  _134
REMARK   60  A    between atoms: _134  and  _135
REMARK   61  A    between atoms: _140  and  _141
REMARK   62  A    between atoms: _143  and  _145
REMARK   63  A    between atoms: _145  and  _146
REMARK   64  A    between atoms: _145  and  _148
REMARK   65  A    between atoms: _148  and  _149
REMARK   66  A    between atoms: _155  and  _157
REMARK   67  A    between atoms: _157  and  _158
REMARK   68  A    between atoms: _157  and  _160
REMARK   69  A    between atoms: _160  and  _161
REMARK   70  A    between atoms: _164  and  _166
REMARK   71  A    between atoms: _166  and  _167
REMARK   72  A    between atoms: _166  and  _169
REMARK   73  A    between atoms: _169  and  _170
REMARK   74  A    between atoms: _170  and  _171
REMARK   75  A    between atoms: _173  and  _175
REMARK   76  A    between atoms: _175  and  _176
REMARK   77  A    between atoms: _175  and  _178
REMARK   78  A    between atoms: _178  and  _179
REMARK   79  A    between atoms: _179  and  _180
REMARK   80  A    between atoms: _182  and  _184
REMARK   81  A    between atoms: _184  and  _185
REMARK   82  A    between atoms: _184  and  _187
REMARK   83  A    between atoms: _190  and  _192
REMARK   84  A    between atoms: _192  and  _193
REMARK   85  A    between atoms: _195  and  _197
REMARK   86  A    between atoms: _197  and  _198
REMARK   87  A    between atoms: _197  and  _200
REMARK   88  A    between atoms: _200  and  _201
REMARK   89  A    between atoms: _201  and  _202
REMARK   90  A    between atoms: _207  and  _209
REMARK   91  A    between atoms: _209  and  _210
REMARK   92  A    between atoms: _209  and  _212
REMARK   93  A    between atoms: _212  and  _213
REMARK   94  A    between atoms: _216  and  _218
REMARK   95  A    between atoms: _218  and  _219
REMARK   96  A    between atoms: _221  and  _223
REMARK   97  A    between atoms: _223  and  _224
REMARK   98  A    between atoms: _223  and  _226
REMARK   99  A    between atoms: _226  and  _227
REMARK  100  A    between atoms: _233  and  _235
REMARK  101  A    between atoms: _235  and  _236
REMARK  102  A    between atoms: _235  and  _238
REMARK  103  A    between atoms: _238  and  _239
REMARK  104  A    between atoms: _244  and  _245
REMARK  105  A    between atoms: _247  and  _249
REMARK  106  A    between atoms: _249  and  _250
REMARK  107  A    between atoms: _249  and  _252
REMARK  108  A    between atoms: _255  and  _257
REMARK  109  A    between atoms: _257  and  _258
REMARK  110  A    between atoms: _261  and  _263
REMARK  111  A    between atoms: _263  and  _264
REMARK  112  A    between atoms: _263  and  _266
REMARK  113  A    between atoms: _266  and  _267
REMARK                            x       y       z     vdW  Elec       q    Type
REMARK                         _______ _______ _______ _____ _____    ______ ____
ROOT
ATOM      1  CA  ILE A   1       7.303  15.142  29.727  0.00  0.00    +0.133 C 
ENDROOT
BRANCH   1   2
ATOM      2  N   ILE A   1       8.688  14.864  29.368  0.00  0.00    -0.239 NA
ATOM      3  H   ILE A   1       9.141  13.992  29.707  0.00  0.00    +0.142 HD
ENDBRANCH   1   2
BRANCH   1   4
ATOM      4  CB  ILE A   1       6.696  14.063  30.647  0.00  0.00    +0.023 C 
ATOM      5  CG2 ILE A   1       6.558  12.707  29.867  0.00  0.00    +0.002 C 
BRANCH   4   6
ATOM      6  CG1 ILE A   1       7.481  13.927  31.969  0.00  0.00    +0.002 C 
ATOM      7  CD1 ILE A   1       6.853  12.917  33.035  0.00  0.00    +0.000 C 
ENDBRANCH   4   6
ENDBRANCH   1   4
BRANCH   1   8
ATOM      8  C   ILE A   1       7.237  16.511  30.408  0.00  0.00    +0.224 C 
ATOM      9  O   ILE A   1       8.185  16.965  31.081  0.00  0.00    -0.287 OA
ENDBRANCH   1   8
TORSDOF 4
REMARK  Name = ../refined-set-2016/4lm1/4lm1_pocket.pdb
REMARK  113 active torsions:
REMARK  status: ('A' for Active; 'I' for Inactive)
REMARK    1  A    between atoms: _1  and  _3
REMARK    2  A    between atoms: _3  and  _4
REMARK    3  A    between atoms: _3  and  _6
REMARK    4  A    between atoms: _6  and  _7
REMARK    5  A    between atoms: _12  and  _13
REMARK    6  A    between atoms: _15  and  _17
REMARK    7  A    between atoms: _17  and  _18
REMARK    8  A    between atoms: _17  and  _20
REMARK    9  A    between atoms: _20  and  _21
REMARK   10  A    between atoms: _26  and  _28
REMARK   11  A    between atoms: _28  and  _29
REMARK   12  A    between atoms: _28  and  _31
REMARK   13  A    between atoms: _31  and  _32
REMARK   14  A    between atoms: _36  and  NI_277
REMARK   15  A    between atoms: _37  and  _39
REMARK   16  A    between atoms: _39  and  _40
REMARK   17  A    between atoms: _39  and  _42
REMARK   18  A    between atoms: _42  and  _43
REMARK   19  A    between atoms: _46  and  _48
REMARK   20  A    between atoms: _48  and  _49
REMARK   21  A    between atoms: _48  and  _51
REMARK   22  A    between atoms: _51  and  _52
REMARK   23  A    between atoms: _55  and  _57
REMARK   24  A    between atoms: _57  and  _58
REMARK   25  A    between atoms: _57  and  _60
REMARK   26  A    between atoms: _60  and  _61
REMARK   27  A    between atoms: _61  and  _63
REMARK   28  A    between atoms: _63  and  NI_277
REMARK   29  A    between atoms: _64  and  _66
REMARK   30  A    between atoms: _66  and  _67
REMARK   31  A    between atoms: _66  and  _69
REMARK   32  A    between atoms: _69  and  _70
REMARK   33  A    between atoms: _73  and  _75
REMARK   34  A    between atoms: _75  and  _76
REMARK   35  A    between atoms: _75  and  _78
REMARK   36  A    between atoms: _80  and  _82
REMARK   37  A    between atoms: _82  and  _83
REMARK   38  A    between atoms: _82  and  _85
REMARK   39  A    between atoms: _85  and  _86
REMARK   40  A    between atoms: _88  and  _90
REMARK   41  A    between atoms: _90  and  _91
REMARK   42  A    between atoms: _90  and  _93
REMARK   43  A    between atoms: _96  and  _98
REMARK   44  A    between atoms: _98  and  _99
REMARK   45  A    between atoms: _98  and  _101
REMARK   46  A    between atoms: _101  and  _102
REMARK   47  A    between atoms: _105  and  _107
REMARK   48  A    between atoms: _107  and  _108
REMARK   49  A    between atoms: _107  and  _110
REMARK   50  A    between atoms: _110  and  _111
REMARK   51  A    between atoms: _114  and  _116
REMARK   52  A    between atoms: _116  and  _117
REMARK   53  A    between atoms: _120  and  _122
REMARK   54  A    between atoms: _122  and  _123
REMARK   55  A    between atoms: _122  and  _125
REMARK   56  A    between atoms: _125  and  _126
REMARK   57  A    between atoms: _129  and  _131
REMARK   58  A    between atoms: _131  and  _132
REMARK   59  A    between atoms: _131  and  _134
REMARK   60  A    between atoms: _134  and  _135
REMARK   61  A    between atoms: _140  and  _141
REMARK   62  A    between atoms: _143  and  _145
REMARK   63  A    between atoms: _145  and  _146
REMARK   64  A    between atoms: _145  and  _148
REMARK   65  A    between atoms: _148  and  _149
REMARK   66  A    between atoms: _155  and  _157
REMARK   67  A    between atoms: _157  and  _158
REMARK   68  A    between atoms: _157  and  _160
REMARK   69  A    between atoms: _160  and  _161
REMARK   70  A    between atoms: _164  and  _166
REMARK   71  A    between atoms: _166  and  _167
REMARK   72  A    between atoms: _166  and  _169
REMARK   73  A    between atoms: _169  and  _170
REMARK   74  A    between atoms: _170  and  _171
REMARK   75  A    between atoms: _173  and  _175
REMARK   76  A    between atoms: _175  and  _176
REMARK   77  A    between atoms: _175  and  _178
REMARK   78  A    between atoms: _178  and  _179
REMARK   79  A    between atoms: _179  and  _180
REMARK   80  A    between atoms: _182  and  _184
REMARK   81  A    between atoms: _184  and  _185
REMARK   82  A    between atoms: _184  and  _187
REMARK   83  A    between atoms: _190  and  _192
REMARK   84  A    between atoms: _192  and  _193
REMARK   85  A    between atoms: _195  and  _197
REMARK   86  A    between atoms: _197  and  _198
REMARK   87  A    between atoms: _197  and  _200
REMARK   88  A    between atoms: _200  and  _201
REMARK   89  A    between atoms: _201  and  _202
REMARK   90  A    between atoms: _207  and  _209
REMARK   91  A    between atoms: _209  and  _210
REMARK   92  A    between atoms: _209  and  _212
REMARK   93  A    between atoms: _212  and  _213
REMARK   94  A    between atoms: _216  and  _218
REMARK   95  A    between atoms: _218  and  _219
REMARK   96  A    between atoms: _221  and  _223
REMARK   97  A    between atoms: _223  and  _224
REMARK   98  A    between atoms: _223  and  _226
REMARK   99  A    between atoms: _226  and  _227
REMARK  100  A    between atoms: _233  and  _235
REMARK  101  A    between atoms: _235  and  _236
REMARK  102  A    between atoms: _235  and  _238
REMARK  103  A    between atoms: _238  and  _239
REMARK  104  A    between atoms: _244  and  _245
REMARK  105  A    between atoms: _247  and  _249
REMARK  106  A    between atoms: _249  and  _250
REMARK  107  A    between atoms: _249  and  _252
REMARK  108  A    between atoms: _255  and  _257
REMARK  109  A    between atoms: _257  and  _258
REMARK  110  A    between atoms: _261  and  _263
REMARK  111  A    between atoms: _263  and  _264
REMARK  112  A    between atoms: _263  and  _266
REMARK  113  A    between atoms: _266  and  _267
REMARK                            x       y       z     vdW  Elec       q    Type
REMARK                         _______ _______ _______ _____ _____    ______ ____
ROOT
ATOM      1  C   MET A   1       7.742  17.553  34.857  0.00  0.00    +0.238 C 
ATOM      2  O   MET A   1       8.131  18.083  35.881  0.00  0.00    -0.274 OA
ATOM      3  N   MET A   2       8.530  17.067  33.910  0.00  0.00    -0.298 N 
ATOM      4  H   MET A   2       8.123  16.690  33.030  0.00  0.00    +0.150 HD
ENDROOT
BRANCH   1   5
ATOM      5  CA  MET A   1       6.252  17.421  34.572  0.00  0.00    +0.146 C 
BRANCH   5   6
ATOM      6  N   MET A   1       6.049  17.480  33.151  0.00  0.00    -0.238 NA
ATOM      7  H   MET A   1       5.630  16.656  32.675  0.00  0.00    +0.142 HD
ENDBRANCH   5   6
BRANCH   5   8
ATOM      8  CB  MET A   1       5.765  16.079  35.143  0.00  0.00    +0.038 C 
BRANCH   8   9
ATOM      9  CG  MET A   1       5.616  16.073  36.629  0.00  0.00    +0.060 C 
BRANCH   9  10
ATOM     10  SD  MET A   1       5.203  14.464  37.294  0.00  0.00    -0.139 S 
ATOM     11  CE  MET A   1       6.737  13.525  36.953  0.00  0.00    +0.069 C 
ENDBRANCH   9  10
ENDBRANCH   8   9
ENDBRANCH   5   8
ENDBRANCH   1   5
BRANCH   3  12
ATOM     12  CA  MET A   2       9.967  17.065  34.111  0.00  0.00    +0.138 C 
BRANCH  12  13
ATOM     13  C   MET A   2      10.674  18.259  33.442  0.00  0.00    +0.227 C 
ATOM     14  O   MET A   2      11.926  18.358  33.445  0.00  0.00    -0.286 OA
ENDBRANCH  12  13
BRANCH  12  15
ATOM     15  CB  MET A   2      10.553  15.730  33.651  0.00  0.00    +0.039 C 
BRANCH  15  16
ATOM     16  CG  MET A   2      10.176  14.575  34.602  0.00  0.00    +0.060 C 
BRANCH  16  17
ATOM     17  SD  MET A   2      10.967  13.062  34.133  0.00  0.00    -0.139 S 
ATOM     18  CE  MET A   2      10.198  11.879  35.198  0.00  0.00    +0.069 C 
ENDBRANCH  16  17
ENDBRANCH  15  16
ENDBRANCH  12  15
ENDBRANCH   3  12
TORSDOF 10
REMARK  Name = ../refined-set-2016/4lm1/4lm1_pocket.pdb
REMARK  113 active torsions:
REMARK  status: ('A' for Active; 'I' for Inactive)
REMARK    1  A    between atoms: _1  and  _3
REMARK    2  A    between atoms: _3  and  _4
REMARK    3  A    between atoms: _3  and  _6
REMARK    4  A    between atoms: _6  and  _7
REMARK    5  A    between atoms: _12  and  _13
REMARK    6  A    between atoms: _15  and  _17
REMARK    7  A    between atoms: _17  and  _18
REMARK    8  A    between atoms: _17  and  _20
REMARK    9  A    between atoms: _20  and  _21
REMARK   10  A    between atoms: _26  and  _28
REMARK   11  A    between atoms: _28  and  _29
REMARK   12  A    between atoms: _28  and  _31
REMARK   13  A    between atoms: _31  and  _32
REMARK   14  A    between atoms: _36  and  NI_277
REMARK   15  A    between atoms: _37  and  _39
REMARK   16  A    between atoms: _39  and  _40
REMARK   17  A    between atoms: _39  and  _42
REMARK   18  A    between atoms: _42  and  _43
REMARK   19  A    between atoms: _46  and  _48
REMARK   20  A    between atoms: _48  and  _49
REMARK   21  A    between atoms: _48  and  _51
REMARK   22  A    between atoms: _51  and  _52
REMARK   23  A    between atoms: _55  and  _57
REMARK   24  A    between atoms: _57  and  _58
REMARK   25  A    between atoms: _57  and  _60
REMARK   26  A    between atoms: _60  and  _61
REMARK   27  A    between atoms: _61  and  _63
REMARK   28  A    between atoms: _63  and  NI_277
REMARK   29  A    between atoms: _64  and  _66
REMARK   30  A    between atoms: _66  and  _67
REMARK   31  A    between atoms: _66  and  _69
REMARK   32  A    between atoms: _69  and  _70
REMARK   33  A    between atoms: _73  and  _75
REMARK   34  A    between atoms: _75  and  _76
REMARK   35  A    between atoms: _75  and  _78
REMARK   36  A    between atoms: _80  and  _82
REMARK   37  A    between atoms: _82  and  _83
REMARK   38  A    between atoms: _82  and  _85
REMARK   39  A    between atoms: _85  and  _86
REMARK   40  A    between atoms: _88  and  _90
REMARK   41  A    between atoms: _90  and  _91
REMARK   42  A    between atoms: _90  and  _93
REMARK   43  A    between atoms: _96  and  _98
REMARK   44  A    between atoms: _98  and  _99
REMARK   45  A    between atoms: _98  and  _101
REMARK   46  A    between atoms: _101  and  _102
REMARK   47  A    between atoms: _105  and  _107
REMARK   48  A    between atoms: _107  and  _108
REMARK   49  A    between atoms: _107  and  _110
REMARK   50  A    between atoms: _110  and  _111
REMARK   51  A    between atoms: _114  and  _116
REMARK   52  A    between atoms: _116  and  _117
REMARK   53  A    between atoms: _120  and  _122
REMARK   54  A    between atoms: _122  and  _123
REMARK   55  A    between atoms: _122  and  _125
REMARK   56  A    between atoms: _125  and  _126
REMARK   57  A    between atoms: _129  and  _131
REMARK   58  A    between atoms: _131  and  _132
REMARK   59  A    between atoms: _131  and  _134
REMARK   60  A    between atoms: _134  and  _135
REMARK   61  A    between atoms: _140  and  _141
REMARK   62  A    between atoms: _143  and  _145
REMARK   63  A    between atoms: _145  and  _146
REMARK   64  A    between atoms: _145  and  _148
REMARK   65  A    between atoms: _148  and  _149
REMARK   66  A    between atoms: _155  and  _157
REMARK   67  A    between atoms: _157  and  _158
REMARK   68  A    between atoms: _157  and  _160
REMARK   69  A    between atoms: _160  and  _161
REMARK   70  A    between atoms: _164  and  _166
REMARK   71  A    between atoms: _166  and  _167
REMARK   72  A    between atoms: _166  and  _169
REMARK   73  A    between atoms: _169  and  _170
REMARK   74  A    between atoms: _170  and  _171
REMARK   75  A    between atoms: _173  and  _175
REMARK   76  A    between atoms: _175  and  _176
REMARK   77  A    between atoms: _175  and  _178
REMARK   78  A    between atoms: _178  and  _179
REMARK   79  A    between atoms: _179  and  _180
REMARK   80  A    between atoms: _182  and  _184
REMARK   81  A    between atoms: _184  and  _185
REMARK   82  A    between atoms: _184  and  _187
REMARK   83  A    between atoms: _190  and  _192
REMARK   84  A    between atoms: _192  and  _193
REMARK   85  A    between atoms: _195  and  _197
REMARK   86  A    between atoms: _197  and  _198
REMARK   87  A    between atoms: _197  and  _200
REMARK   88  A    between atoms: _200  and  _201
REMARK   89  A    between atoms: _201  and  _202
REMARK   90  A    between atoms: _207  and  _209
REMARK   91  A    between atoms: _209  and  _210
REMARK   92  A    between atoms: _209  and  _212
REMARK   93  A    between atoms: _212  and  _213
REMARK   94  A    between atoms: _216  and  _218
REMARK   95  A    between atoms: _218  and  _219
REMARK   96  A    between atoms: _221  and  _223
REMARK   97  A    between atoms: _223  and  _224
REMARK   98  A    between atoms: _223  and  _226
REMARK   99  A    between atoms: _226  and  _227
REMARK  100  A    between atoms: _233  and  _235
REMARK  101  A    between atoms: _235  and  _236
REMARK  102  A    between atoms: _235  and  _238
REMARK  103  A    between atoms: _238  and  _239
REMARK  104  A    between atoms: _244  and  _245
REMARK  105  A    between atoms: _247  and  _249
REMARK  106  A    between atoms: _249  and  _250
REMARK  107  A    between atoms: _249  and  _252
REMARK  108  A    between atoms: _255  and  _257
REMARK  109  A    between atoms: _257  and  _258
REMARK  110  A    between atoms: _261  and  _263
REMARK  111  A    between atoms: _263  and  _264
REMARK  112  A    between atoms: _263  and  _266
REMARK  113  A    between atoms: _266  and  _267
REMARK                            x       y       z     vdW  Elec       q    Type
REMARK                         _______ _______ _______ _____ _____    ______ ____
ROOT
ATOM      1  CA  VAL A   1       2.822  22.317  38.054  0.00  0.00    +0.133 C 
ENDROOT
BRANCH   1   2
ATOM      2  CB  VAL A   1       3.960  22.824  38.921  0.00  0.00    +0.023 C 
ATOM      3  CG2 VAL A   1       3.895  22.216  40.355  0.00  0.00    +0.002 C 
ATOM      4  CG1 VAL A   1       5.300  22.478  38.270  0.00  0.00    +0.002 C 
ENDBRANCH   1   2
BRANCH   1   5
ATOM      5  N   VAL A   1       2.717  23.055  36.780  0.00  0.00    -0.239 NA
ATOM      6  H   VAL A   1       3.376  23.838  36.593  0.00  0.00    +0.142 HD
ENDBRANCH   1   5
BRANCH   1   7
ATOM      7  C   VAL A   1       1.477  22.199  38.845  0.00  0.00    +0.224 C 
ATOM      8  O   VAL A   1       1.098  21.098  39.219  0.00  0.00    -0.287 OA
ENDBRANCH   1   7
TORSDOF 3
REMARK  Name = ../refined-set-2016/4lm1/4lm1_pocket.pdb
REMARK  113 active torsions:
REMARK  status: ('A' for Active; 'I' for Inactive)
REMARK    1  A    between atoms: _1  and  _3
REMARK    2  A    between atoms: _3  and  _4
REMARK    3  A    between atoms: _3  and  _6
REMARK    4  A    between atoms: _6  and  _7
REMARK    5  A    between atoms: _12  and  _13
REMARK    6  A    between atoms: _15  and  _17
REMARK    7  A    between atoms: _17  and  _18
REMARK    8  A    between atoms: _17  and  _20
REMARK    9  A    between atoms: _20  and  _21
REMARK   10  A    between atoms: _26  and  _28
REMARK   11  A    between atoms: _28  and  _29
REMARK   12  A    between atoms: _28  and  _31
REMARK   13  A    between atoms: _31  and  _32
REMARK   14  A    between atoms: _36  and  NI_277
REMARK   15  A    between atoms: _37  and  _39
REMARK   16  A    between atoms: _39  and  _40
REMARK   17  A    between atoms: _39  and  _42
REMARK   18  A    between atoms: _42  and  _43
REMARK   19  A    between atoms: _46  and  _48
REMARK   20  A    between atoms: _48  and  _49
REMARK   21  A    between atoms: _48  and  _51
REMARK   22  A    between atoms: _51  and  _52
REMARK   23  A    between atoms: _55  and  _57
REMARK   24  A    between atoms: _57  and  _58
REMARK   25  A    between atoms: _57  and  _60
REMARK   26  A    between atoms: _60  and  _61
REMARK   27  A    between atoms: _61  and  _63
REMARK   28  A    between atoms: _63  and  NI_277
REMARK   29  A    between atoms: _64  and  _66
REMARK   30  A    between atoms: _66  and  _67
REMARK   31  A    between atoms: _66  and  _69
REMARK   32  A    between atoms: _69  and  _70
REMARK   33  A    between atoms: _73  and  _75
REMARK   34  A    between atoms: _75  and  _76
REMARK   35  A    between atoms: _75  and  _78
REMARK   36  A    between atoms: _80  and  _82
REMARK   37  A    between atoms: _82  and  _83
REMARK   38  A    between atoms: _82  and  _85
REMARK   39  A    between atoms: _85  and  _86
REMARK   40  A    between atoms: _88  and  _90
REMARK   41  A    between atoms: _90  and  _91
REMARK   42  A    between atoms: _90  and  _93
REMARK   43  A    between atoms: _96  and  _98
REMARK   44  A    between atoms: _98  and  _99
REMARK   45  A    between atoms: _98  and  _101
REMARK   46  A    between atoms: _101  and  _102
REMARK   47  A    between atoms: _105  and  _107
REMARK   48  A    between atoms: _107  and  _108
REMARK   49  A    between atoms: _107  and  _110
REMARK   50  A    between atoms: _110  and  _111
REMARK   51  A    between atoms: _114  and  _116
REMARK   52  A    between atoms: _116  and  _117
REMARK   53  A    between atoms: _120  and  _122
REMARK   54  A    between atoms: _122  and  _123
REMARK   55  A    between atoms: _122  and  _125
REMARK   56  A    between atoms: _125  and  _126
REMARK   57  A    between atoms: _129  and  _131
REMARK   58  A    between atoms: _131  and  _132
REMARK   59  A    between atoms: _131  and  _134
REMARK   60  A    between atoms: _134  and  _135
REMARK   61  A    between atoms: _140  and  _141
REMARK   62  A    between atoms: _143  and  _145
REMARK   63  A    between atoms: _145  and  _146
REMARK   64  A    between atoms: _145  and  _148
REMARK   65  A    between atoms: _148  and  _149
REMARK   66  A    between atoms: _155  and  _157
REMARK   67  A    between atoms: _157  and  _158
REMARK   68  A    between atoms: _157  and  _160
REMARK   69  A    between atoms: _160  and  _161
REMARK   70  A    between atoms: _164  and  _166
REMARK   71  A    between atoms: _166  and  _167
REMARK   72  A    between atoms: _166  and  _169
REMARK   73  A    between atoms: _169  and  _170
REMARK   74  A    between atoms: _170  and  _171
REMARK   75  A    between atoms: _173  and  _175
REMARK   76  A    between atoms: _175  and  _176
REMARK   77  A    between atoms: _175  and  _178
REMARK   78  A    between atoms: _178  and  _179
REMARK   79  A    between atoms: _179  and  _180
REMARK   80  A    between atoms: _182  and  _184
REMARK   81  A    between atoms: _184  and  _185
REMARK   82  A    between atoms: _184  and  _187
REMARK   83  A    between atoms: _190  and  _192
REMARK   84  A    between atoms: _192  and  _193
REMARK   85  A    between atoms: _195  and  _197
REMARK   86  A    between atoms: _197  and  _198
REMARK   87  A    between atoms: _197  and  _200
REMARK   88  A    between atoms: _200  and  _201
REMARK   89  A    between atoms: _201  and  _202
REMARK   90  A    between atoms: _207  and  _209
REMARK   91  A    between atoms: _209  and  _210
REMARK   92  A    between atoms: _209  and  _212
REMARK   93  A    between atoms: _212  and  _213
REMARK   94  A    between atoms: _216  and  _218
REMARK   95  A    between atoms: _218  and  _219
REMARK   96  A    between atoms: _221  and  _223
REMARK   97  A    between atoms: _223  and  _224
REMARK   98  A    between atoms: _223  and  _226
REMARK   99  A    between atoms: _226  and  _227
REMARK  100  A    between atoms: _233  and  _235
REMARK  101  A    between atoms: _235  and  _236
REMARK  102  A    between atoms: _235  and  _238
REMARK  103  A    between atoms: _238  and  _239
REMARK  104  A    between atoms: _244  and  _245
REMARK  105  A    between atoms: _247  and  _249
REMARK  106  A    between atoms: _249  and  _250
REMARK  107  A    between atoms: _249  and  _252
REMARK  108  A    between atoms: _255  and  _257
REMARK  109  A    between atoms: _257  and  _258
REMARK  110  A    between atoms: _261  and  _263
REMARK  111  A    between atoms: _263  and  _264
REMARK  112  A    between atoms: _263  and  _266
REMARK  113  A    between atoms: _266  and  _267
REMARK                            x       y       z     vdW  Elec       q    Type
REMARK                         _______ _______ _______ _____ _____    ______ ____
ROOT
ATOM      1  CA  GLY A   4      -3.948  15.370  38.222  0.00  0.00    +0.176 C 
ENDROOT
BRANCH   1   2
ATOM      2  C   GLY A   4      -3.432  14.222  39.085  0.00  0.00    +0.243 C 
ATOM      3  N   PHE A   5      -2.302  14.460  39.741  0.00  0.00    -0.297 N 
ATOM      4  H   PHE A   5      -1.833  15.382  39.635  0.00  0.00    +0.150 HD
ATOM      5  O   GLY A   4      -4.068  13.153  39.197  0.00  0.00    -0.273 OA
BRANCH   3   6
ATOM      6  CA  PHE A   5      -1.716  13.460  40.598  0.00  0.00    +0.153 C 
BRANCH   6   7
ATOM      7  C   PHE A   5      -2.630  13.120  41.786  0.00  0.00    +0.241 C 
ATOM      8  N   TYR A   6      -3.203  14.133  42.445  0.00  0.00    -0.298 N 
ATOM      9  H   TYR A   6      -3.046  15.108  42.120  0.00  0.00    +0.150 HD
ATOM     10  O   PHE A   5      -2.813  11.942  42.105  0.00  0.00    -0.273 OA
BRANCH   8  11
ATOM     11  CA  TYR A   6      -4.053  13.890  43.624  0.00  0.00    +0.141 C 
BRANCH  11  12
ATOM     12  C   TYR A   6      -5.330  13.137  43.184  0.00  0.00    +0.227 C 
ATOM     13  O   TYR A   6      -5.710  12.142  43.785  0.00  0.00    -0.286 OA
ENDBRANCH  11  12
BRANCH  11  14
ATOM     14  CB  TYR A   6      -4.461  15.199  44.293  0.00  0.00    +0.054 C 
BRANCH  14  15
ATOM     15  CG  TYR A   6      -3.459  15.740  45.272  0.00  0.00    -0.020 A 
ATOM     16  CD2 TYR A   6      -3.737  15.768  46.658  0.00  0.00    -0.001 A 
ATOM     17  CE2 TYR A   6      -2.777  16.287  47.573  0.00  0.00    +0.036 A 
ATOM     18  CZ  TYR A   6      -1.568  16.751  47.078  0.00  0.00    +0.134 A 
ATOM     19  CE1 TYR A   6      -1.289  16.734  45.724  0.00  0.00    +0.036 A 
ATOM     20  CD1 TYR A   6      -2.224  16.227  44.827  0.00  0.00    -0.001 A 
BRANCH  18  21
ATOM     21  OH  TYR A   6      -0.645  17.268  47.949  0.00  0.00    -0.506 OA
ATOM     22  HH  TYR A   6       0.158  17.554  47.446  0.00  0.00    +0.292 HD
ENDBRANCH  18  21
ENDBRANCH  14  15
ENDBRANCH  11  14
ENDBRANCH   8  11
ENDBRANCH   6   7
BRANCH   6  23
ATOM     23  CB  PHE A   5      -0.337  13.877  41.103  0.00  0.00    +0.055 C 
BRANCH  23  24
ATOM     24  CG  PHE A   5       0.296  12.831  41.960  0.00  0.00    -0.020 A 
ATOM     25  CD2 PHE A   5       0.235  12.927  43.367  0.00  0.00    -0.004 A 
ATOM     26  CE2 PHE A   5       0.794  11.910  44.172  0.00  0.00    -0.000 A 
ATOM     27  CZ  PHE A   5       1.396  10.798  43.573  0.00  0.00    -0.000 A 
ATOM     28  CE1 PHE A   5       1.444  10.680  42.166  0.00  0.00    -0.000 A 
ATOM     29  CD1 PHE A   5       0.903  11.698  41.369  0.00  0.00    -0.004 A 
ENDBRANCH  23  24
ENDBRANCH   6  23
ENDBRANCH   3   6
ENDBRANCH   1   2
BRANCH   1  32
ATOM     30  C   LEU A   3      -4.504  16.865  40.086  0.00  0.00    +0.241 C 
ATOM     31  O   LEU A   3      -5.128  15.965  40.688  0.00  0.00    -0.273 OA
ATOM     32  N   GLY A   4      -3.904  16.670  38.908  0.00  0.00    -0.295 N 
ATOM     33  H   GLY A   4      -3.392  17.459  38.464  0.00  0.00    +0.150 HD
BRANCH  30  34
ATOM     34  CA  LEU A   3      -4.378  18.268  40.694  0.00  0.00    +0.149 C 
BRANCH  34  37
ATOM     35  C   GLN A   2      -2.079  17.836  41.230  0.00  0.00    +0.241 C 
ATOM     36  O   GLN A   2      -2.385  16.770  41.788  0.00  0.00    -0.273 OA
ATOM     37  N   LEU A   3      -2.971  18.674  40.726  0.00  0.00    -0.297 N 
ATOM     38  H   LEU A   3      -2.679  19.602  40.360  0.00  0.00    +0.150 HD
BRANCH  35  39
ATOM     39  CA  GLN A   2      -0.634  18.259  41.140  0.00  0.00    +0.149 C 
BRANCH  39  41
ATOM     40  C   GLY A   1      -0.326  17.853  38.746  0.00  0.00    +0.240 C 
ATOM     41  N   GLN A   2      -0.306  18.702  39.776  0.00  0.00    -0.297 N 
ATOM     42  H   GLN A   2      -0.053  19.697  39.611  0.00  0.00    +0.150 HD
ATOM     43  O   GLY A   1      -0.542  16.639  38.853  0.00  0.00    -0.274 OA
BRANCH  40  44
ATOM     44  CA  GLY A   1      -0.095  18.465  37.379  0.00  0.00    +0.169 C 
BRANCH  44  45
ATOM     45  N   GLY A   1      -0.705  19.780  37.268  0.00  0.00    -0.236 NA
ATOM     46  H   GLY A   1      -0.097  20.612  37.131  0.00  0.00    +0.142 HD
ENDBRANCH  44  45
ENDBRANCH  40  44
ENDBRANCH  39  41
BRANCH  39  47
ATOM     47  CB  GLN A   2      -0.340  19.342  42.152  0.00  0.00    +0.039 C 
BRANCH  47  48
ATOM     48  CG  GLN A   2       1.168  19.535  42.345  0.00  0.00    +0.087 C 
BRANCH  48  49
ATOM     49  CD  GLN A   2       1.823  18.303  42.921  0.00  0.00    +0.219 C 
ATOM     50  OE1 GLN A   2       1.490  17.884  44.024  0.00  0.00    -0.275 OA
ATOM     51  NE2 GLN A   2       2.761  17.696  42.165  0.00  0.00    -0.329 N 
ATOM     52 HE21 GLN A   2       3.233  16.837  42.513  0.00  0.00    +0.145 HD
ATOM     53 HE22 GLN A   2       3.012  18.087  41.235  0.00  0.00    +0.145 HD
ENDBRANCH  48  49
ENDBRANCH  47  48
ENDBRANCH  39  47
ENDBRANCH  35  39
ENDBRANCH  34  37
BRANCH  34  54
ATOM     54  CB  LEU A   3      -5.242  19.260  39.909  0.00  0.00    +0.029 C 
BRANCH  54  55
ATOM     55  CG  LEU A   3      -6.742  18.969  39.826  0.00  0.00    +0.002 C 
ATOM     56  CD2 LEU A   3      -7.437  19.360  41.108  0.00  0.00    +0.000 C 
ATOM     57  CD1 LEU A   3      -7.379  19.696  38.650  0.00  0.00    +0.000 C 
ENDBRANCH  54  55
ENDBRANCH  34  54
ENDBRANCH  30  34
ENDBRANCH   1  32
TORSDOF 22
REMARK  Name = ../refined-set-2016/4lm1/4lm1_pocket.pdb
REMARK  113 active torsions:
REMARK  status: ('A' for Active; 'I' for Inactive)
REMARK    1  A    between atoms: _1  and  _3
REMARK    2  A    between atoms: _3  and  _4
REMARK    3  A    between atoms: _3  and  _6
REMARK    4  A    between atoms: _6  and  _7
REMARK    5  A    between atoms: _12  and  _13
REMARK    6  A    between atoms: _15  and  _17
REMARK    7  A    between atoms: _17  and  _18
REMARK    8  A    between atoms: _17  and  _20
REMARK    9  A    between atoms: _20  and  _21
REMARK   10  A    between atoms: _26  and  _28
REMARK   11  A    between atoms: _28  and  _29
REMARK   12  A    between atoms: _28  and  _31
REMARK   13  A    between atoms: _31  and  _32
REMARK   14  A    between atoms: _36  and  NI_277
REMARK   15  A    between atoms: _37  and  _39
REMARK   16  A    between atoms: _39  and  _40
REMARK   17  A    between atoms: _39  and  _42
REMARK   18  A    between atoms: _42  and  _43
REMARK   19  A    between atoms: _46  and  _48
REMARK   20  A    between atoms: _48  and  _49
REMARK   21  A    between atoms: _48  and  _51
REMARK   22  A    between atoms: _51  and  _52
REMARK   23  A    between atoms: _55  and  _57
REMARK   24  A    between atoms: _57  and  _58
REMARK   25  A    between atoms: _57  and  _60
REMARK   26  A    between atoms: _60  and  _61
REMARK   27  A    between atoms: _61  and  _63
REMARK   28  A    between atoms: _63  and  NI_277
REMARK   29  A    between atoms: _64  and  _66
REMARK   30  A    between atoms: _66  and  _67
REMARK   31  A    between atoms: _66  and  _69
REMARK   32  A    between atoms: _69  and  _70
REMARK   33  A    between atoms: _73  and  _75
REMARK   34  A    between atoms: _75  and  _76
REMARK   35  A    between atoms: _75  and  _78
REMARK   36  A    between atoms: _80  and  _82
REMARK   37  A    between atoms: _82  and  _83
REMARK   38  A    between atoms: _82  and  _85
REMARK   39  A    between atoms: _85  and  _86
REMARK   40  A    between atoms: _88  and  _90
REMARK   41  A    between atoms: _90  and  _91
REMARK   42  A    between atoms: _90  and  _93
REMARK   43  A    between atoms: _96  and  _98
REMARK   44  A    between atoms: _98  and  _99
REMARK   45  A    between atoms: _98  and  _101
REMARK   46  A    between atoms: _101  and  _102
REMARK   47  A    between atoms: _105  and  _107
REMARK   48  A    between atoms: _107  and  _108
REMARK   49  A    between atoms: _107  and  _110
REMARK   50  A    between atoms: _110  and  _111
REMARK   51  A    between atoms: _114  and  _116
REMARK   52  A    between atoms: _116  and  _117
REMARK   53  A    between atoms: _120  and  _122
REMARK   54  A    between atoms: _122  and  _123
REMARK   55  A    between atoms: _122  and  _125
REMARK   56  A    between atoms: _125  and  _126
REMARK   57  A    between atoms: _129  and  _131
REMARK   58  A    between atoms: _131  and  _132
REMARK   59  A    between atoms: _131  and  _134
REMARK   60  A    between atoms: _134  and  _135
REMARK   61  A    between atoms: _140  and  _141
REMARK   62  A    between atoms: _143  and  _145
REMARK   63  A    between atoms: _145  and  _146
REMARK   64  A    between atoms: _145  and  _148
REMARK   65  A    between atoms: _148  and  _149
REMARK   66  A    between atoms: _155  and  _157
REMARK   67  A    between atoms: _157  and  _158
REMARK   68  A    between atoms: _157  and  _160
REMARK   69  A    between atoms: _160  and  _161
REMARK   70  A    between atoms: _164  and  _166
REMARK   71  A    between atoms: _166  and  _167
REMARK   72  A    between atoms: _166  and  _169
REMARK   73  A    between atoms: _169  and  _170
REMARK   74  A    between atoms: _170  and  _171
REMARK   75  A    between atoms: _173  and  _175
REMARK   76  A    between atoms: _175  and  _176
REMARK   77  A    between atoms: _175  and  _178
REMARK   78  A    between atoms: _178  and  _179
REMARK   79  A    between atoms: _179  and  _180
REMARK   80  A    between atoms: _182  and  _184
REMARK   81  A    between atoms: _184  and  _185
REMARK   82  A    between atoms: _184  and  _187
REMARK   83  A    between atoms: _190  and  _192
REMARK   84  A    between atoms: _192  and  _193
REMARK   85  A    between atoms: _195  and  _197
REMARK   86  A    between atoms: _197  and  _198
REMARK   87  A    between atoms: _197  and  _200
REMARK   88  A    between atoms: _200  and  _201
REMARK   89  A    between atoms: _201  and  _202
REMARK   90  A    between atoms: _207  and  _209
REMARK   91  A    between atoms: _209  and  _210
REMARK   92  A    between atoms: _209  and  _212
REMARK   93  A    between atoms: _212  and  _213
REMARK   94  A    between atoms: _216  and  _218
REMARK   95  A    between atoms: _218  and  _219
REMARK   96  A    between atoms: _221  and  _223
REMARK   97  A    between atoms: _223  and  _224
REMARK   98  A    between atoms: _223  and  _226
REMARK   99  A    between atoms: _226  and  _227
REMARK  100  A    between atoms: _233  and  _235
REMARK  101  A    between atoms: _235  and  _236
REMARK  102  A    between atoms: _235  and  _238
REMARK  103  A    between atoms: _238  and  _239
REMARK  104  A    between atoms: _244  and  _245
REMARK  105  A    between atoms: _247  and  _249
REMARK  106  A    between atoms: _249  and  _250
REMARK  107  A    between atoms: _249  and  _252
REMARK  108  A    between atoms: _255  and  _257
REMARK  109  A    between atoms: _257  and  _258
REMARK  110  A    between atoms: _261  and  _263
REMARK  111  A    between atoms: _263  and  _264
REMARK  112  A    between atoms: _263  and  _266
REMARK  113  A    between atoms: _266  and  _267
REMARK                            x       y       z     vdW  Elec       q    Type
REMARK                         _______ _______ _______ _____ _____    ______ ____
ROOT
ATOM      1  C   VAL A   1      -3.626   8.692  44.062  0.00  0.00    +0.238 C 
ATOM      2  O   VAL A   1      -4.027   7.735  44.748  0.00  0.00    -0.274 OA
ATOM      3  N   ALA A   2      -3.457   9.913  44.577  0.00  0.00    -0.298 N 
ATOM      4  H   ALA A   2      -3.376  10.746  43.960  0.00  0.00    +0.150 HD
ENDROOT
BRANCH   3   5
ATOM      5  CA  ALA A   2      -3.388  10.048  46.055  0.00  0.00    +0.137 C 
ATOM      6  CB  ALA A   2      -2.663  11.359  46.501  0.00  0.00    +0.030 C 
BRANCH   5   7
ATOM      7  C   ALA A   2      -4.743   9.908  46.705  0.00  0.00    +0.227 C 
ATOM      8  O   ALA A   2      -4.892   9.131  47.654  0.00  0.00    -0.286 OA
ENDBRANCH   5   7
ENDBRANCH   3   5
BRANCH   1   9
ATOM      9  CA  VAL A   1      -3.300   8.502  42.578  0.00  0.00    +0.145 C 
BRANCH   9  10
ATOM     10  CB  VAL A   1      -1.778   8.717  42.359  0.00  0.00    +0.025 C 
ATOM     11  CG2 VAL A   1      -0.994   7.744  43.212  0.00  0.00    +0.002 C 
ATOM     12  CG1 VAL A   1      -1.408   8.598  40.865  0.00  0.00    +0.002 C 
ENDBRANCH   9  10
BRANCH   9  13
ATOM     13  N   VAL A   1      -4.078   9.363  41.728  0.00  0.00    -0.238 NA
ATOM     14  H   VAL A   1      -4.006  10.392  41.860  0.00  0.00    +0.142 HD
ENDBRANCH   9  13
ENDBRANCH   1   9
TORSDOF 5
REMARK  Name = ../refined-set-2016/4lm1/4lm1_pocket.pdb
REMARK  113 active torsions:
REMARK  status: ('A' for Active; 'I' for Inactive)
REMARK    1  A    between atoms: _1  and  _3
REMARK    2  A    between atoms: _3  and  _4
REMARK    3  A    between atoms: _3  and  _6
REMARK    4  A    between atoms: _6  and  _7
REMARK    5  A    between atoms: _12  and  _13
REMARK    6  A    between atoms: _15  and  _17
REMARK    7  A    between atoms: _17  and  _18
REMARK    8  A    between atoms: _17  and  _20
REMARK    9  A    between atoms: _20  and  _21
REMARK   10  A    between atoms: _26  and  _28
REMARK   11  A    between atoms: _28  and  _29
REMARK   12  A    between atoms: _28  and  _31
REMARK   13  A    between atoms: _31  and  _32
REMARK   14  A    between atoms: _36  and  NI_277
REMARK   15  A    between atoms: _37  and  _39
REMARK   16  A    between atoms: _39  and  _40
REMARK   17  A    between atoms: _39  and  _42
REMARK   18  A    between atoms: _42  and  _43
REMARK   19  A    between atoms: _46  and  _48
REMARK   20  A    between atoms: _48  and  _49
REMARK   21  A    between atoms: _48  and  _51
REMARK   22  A    between atoms: _51  and  _52
REMARK   23  A    between atoms: _55  and  _57
REMARK   24  A    between atoms: _57  and  _58
REMARK   25  A    between atoms: _57  and  _60
REMARK   26  A    between atoms: _60  and  _61
REMARK   27  A    between atoms: _61  and  _63
REMARK   28  A    between atoms: _63  and  NI_277
REMARK   29  A    between atoms: _64  and  _66
REMARK   30  A    between atoms: _66  and  _67
REMARK   31  A    between atoms: _66  and  _69
REMARK   32  A    between atoms: _69  and  _70
REMARK   33  A    between atoms: _73  and  _75
REMARK   34  A    between atoms: _75  and  _76
REMARK   35  A    between atoms: _75  and  _78
REMARK   36  A    between atoms: _80  and  _82
REMARK   37  A    between atoms: _82  and  _83
REMARK   38  A    between atoms: _82  and  _85
REMARK   39  A    between atoms: _85  and  _86
REMARK   40  A    between atoms: _88  and  _90
REMARK   41  A    between atoms: _90  and  _91
REMARK   42  A    between atoms: _90  and  _93
REMARK   43  A    between atoms: _96  and  _98
REMARK   44  A    between atoms: _98  and  _99
REMARK   45  A    between atoms: _98  and  _101
REMARK   46  A    between atoms: _101  and  _102
REMARK   47  A    between atoms: _105  and  _107
REMARK   48  A    between atoms: _107  and  _108
REMARK   49  A    between atoms: _107  and  _110
REMARK   50  A    between atoms: _110  and  _111
REMARK   51  A    between atoms: _114  and  _116
REMARK   52  A    between atoms: _116  and  _117
REMARK   53  A    between atoms: _120  and  _122
REMARK   54  A    between atoms: _122  and  _123
REMARK   55  A    between atoms: _122  and  _125
REMARK   56  A    between atoms: _125  and  _126
REMARK   57  A    between atoms: _129  and  _131
REMARK   58  A    between atoms: _131  and  _132
REMARK   59  A    between atoms: _131  and  _134
REMARK   60  A    between atoms: _134  and  _135
REMARK   61  A    between atoms: _140  and  _141
REMARK   62  A    between atoms: _143  and  _145
REMARK   63  A    between atoms: _145  and  _146
REMARK   64  A    between atoms: _145  and  _148
REMARK   65  A    between atoms: _148  and  _149
REMARK   66  A    between atoms: _155  and  _157
REMARK   67  A    between atoms: _157  and  _158
REMARK   68  A    between atoms: _157  and  _160
REMARK   69  A    between atoms: _160  and  _161
REMARK   70  A    between atoms: _164  and  _166
REMARK   71  A    between atoms: _166  and  _167
REMARK   72  A    between atoms: _166  and  _169
REMARK   73  A    between atoms: _169  and  _170
REMARK   74  A    between atoms: _170  and  _171
REMARK   75  A    between atoms: _173  and  _175
REMARK   76  A    between atoms: _175  and  _176
REMARK   77  A    between atoms: _175  and  _178
REMARK   78  A    between atoms: _178  and  _179
REMARK   79  A    between atoms: _179  and  _180
REMARK   80  A    between atoms: _182  and  _184
REMARK   81  A    between atoms: _184  and  _185
REMARK   82  A    between atoms: _184  and  _187
REMARK   83  A    between atoms: _190  and  _192
REMARK   84  A    between atoms: _192  and  _193
REMARK   85  A    between atoms: _195  and  _197
REMARK   86  A    between atoms: _197  and  _198
REMARK   87  A    between atoms: _197  and  _200
REMARK   88  A    between atoms: _200  and  _201
REMARK   89  A    between atoms: _201  and  _202
REMARK   90  A    between atoms: _207  and  _209
REMARK   91  A    between atoms: _209  and  _210
REMARK   92  A    between atoms: _209  and  _212
REMARK   93  A    between atoms: _212  and  _213
REMARK   94  A    between atoms: _216  and  _218
REMARK   95  A    between atoms: _218  and  _219
REMARK   96  A    between atoms: _221  and  _223
REMARK   97  A    between atoms: _223  and  _224
REMARK   98  A    between atoms: _223  and  _226
REMARK   99  A    between atoms: _226  and  _227
REMARK  100  A    between atoms: _233  and  _235
REMARK  101  A    between atoms: _235  and  _236
REMARK  102  A    between atoms: _235  and  _238
REMARK  103  A    between atoms: _238  and  _239
REMARK  104  A    between atoms: _244  and  _245
REMARK  105  A    between atoms: _247  and  _249
REMARK  106  A    between atoms: _249  and  _250
REMARK  107  A    between atoms: _249  and  _252
REMARK  108  A    between atoms: _255  and  _257
REMARK  109  A    between atoms: _257  and  _258
REMARK  110  A    between atoms: _261  and  _263
REMARK  111  A    between atoms: _263  and  _264
REMARK  112  A    between atoms: _263  and  _266
REMARK  113  A    between atoms: _266  and  _267
REMARK                            x       y       z     vdW  Elec       q    Type
REMARK                         _______ _______ _______ _____ _____    ______ ____
ROOT
ATOM      1  CG  TRP A   1      -1.942  21.275  44.966  0.00  0.00    -0.002 A 
ATOM      2  CD1 TRP A   1      -1.684  20.219  45.800  0.00  0.00    +0.068 A 
ATOM      3  NE1 TRP A   1      -0.322  20.137  46.044  0.00  0.00    -0.352 N 
ATOM      4  HE1 TRP A   1       0.144  19.417  46.633  0.00  0.00    +0.166 HD
ATOM      5  CE2 TRP A   1       0.311  21.155  45.386  0.00  0.00    +0.056 A 
ATOM      6  CZ2 TRP A   1       1.697  21.486  45.338  0.00  0.00    +0.017 A 
ATOM      7  CH2 TRP A   1       2.055  22.568  44.563  0.00  0.00    +0.001 A 
ATOM      8  CZ3 TRP A   1       1.107  23.314  43.862  0.00  0.00    +0.000 A 
ATOM      9  CE3 TRP A   1      -0.271  22.988  43.911  0.00  0.00    +0.001 A 
ATOM     10  CD2 TRP A   1      -0.673  21.888  44.685  0.00  0.00    +0.013 A 
ENDROOT
BRANCH   1  11
ATOM     11  CB  TRP A   1      -3.296  21.709  44.461  0.00  0.00    +0.053 C 
BRANCH  11  12
ATOM     12  CA  TRP A   1      -3.722  23.083  45.020  0.00  0.00    +0.137 C 
BRANCH  12  13
ATOM     13  N   TRP A   1      -4.104  23.021  46.444  0.00  0.00    -0.239 NA
ATOM     14  H   TRP A   1      -4.170  22.101  46.925  0.00  0.00    +0.142 HD
ENDBRANCH  12  13
BRANCH  12  15
ATOM     15  C   TRP A   1      -4.815  23.734  44.153  0.00  0.00    +0.224 C 
ATOM     16  O   TRP A   1      -4.514  24.511  43.243  0.00  0.00    -0.287 OA
ENDBRANCH  12  15
ENDBRANCH  11  12
ENDBRANCH   1  11
TORSDOF 4
REMARK  Name = ../refined-set-2016/4lm1/4lm1_pocket.pdb
REMARK  113 active torsions:
REMARK  status: ('A' for Active; 'I' for Inactive)
REMARK    1  A    between atoms: _1  and  _3
REMARK    2  A    between atoms: _3  and  _4
REMARK    3  A    between atoms: _3  and  _6
REMARK    4  A    between atoms: _6  and  _7
REMARK    5  A    between atoms: _12  and  _13
REMARK    6  A    between atoms: _15  and  _17
REMARK    7  A    between atoms: _17  and  _18
REMARK    8  A    between atoms: _17  and  _20
REMARK    9  A    between atoms: _20  and  _21
REMARK   10  A    between atoms: _26  and  _28
REMARK   11  A    between atoms: _28  and  _29
REMARK   12  A    between atoms: _28  and  _31
REMARK   13  A    between atoms: _31  and  _32
REMARK   14  A    between atoms: _36  and  NI_277
REMARK   15  A    between atoms: _37  and  _39
REMARK   16  A    between atoms: _39  and  _40
REMARK   17  A    between atoms: _39  and  _42
REMARK   18  A    between atoms: _42  and  _43
REMARK   19  A    between atoms: _46  and  _48
REMARK   20  A    between atoms: _48  and  _49
REMARK   21  A    between atoms: _48  and  _51
REMARK   22  A    between atoms: _51  and  _52
REMARK   23  A    between atoms: _55  and  _57
REMARK   24  A    between atoms: _57  and  _58
REMARK   25  A    between atoms: _57  and  _60
REMARK   26  A    between atoms: _60  and  _61
REMARK   27  A    between atoms: _61  and  _63
REMARK   28  A    between atoms: _63  and  NI_277
REMARK   29  A    between atoms: _64  and  _66
REMARK   30  A    between atoms: _66  and  _67
REMARK   31  A    between atoms: _66  and  _69
REMARK   32  A    between atoms: _69  and  _70
REMARK   33  A    between atoms: _73  and  _75
REMARK   34  A    between atoms: _75  and  _76
REMARK   35  A    between atoms: _75  and  _78
REMARK   36  A    between atoms: _80  and  _82
REMARK   37  A    between atoms: _82  and  _83
REMARK   38  A    between atoms: _82  and  _85
REMARK   39  A    between atoms: _85  and  _86
REMARK   40  A    between atoms: _88  and  _90
REMARK   41  A    between atoms: _90  and  _91
REMARK   42  A    between atoms: _90  and  _93
REMARK   43  A    between atoms: _96  and  _98
REMARK   44  A    between atoms: _98  and  _99
REMARK   45  A    between atoms: _98  and  _101
REMARK   46  A    between atoms: _101  and  _102
REMARK   47  A    between atoms: _105  and  _107
REMARK   48  A    between atoms: _107  and  _108
REMARK   49  A    between atoms: _107  and  _110
REMARK   50  A    between atoms: _110  and  _111
REMARK   51  A    between atoms: _114  and  _116
REMARK   52  A    between atoms: _116  and  _117
REMARK   53  A    between atoms: _120  and  _122
REMARK   54  A    between atoms: _122  and  _123
REMARK   55  A    between atoms: _122  and  _125
REMARK   56  A    between atoms: _125  and  _126
REMARK   57  A    between atoms: _129  and  _131
REMARK   58  A    between atoms: _131  and  _132
REMARK   59  A    between atoms: _131  and  _134
REMARK   60  A    between atoms: _134  and  _135
REMARK   61  A    between atoms: _140  and  _141
REMARK   62  A    between atoms: _143  and  _145
REMARK   63  A    between atoms: _145  and  _146
REMARK   64  A    between atoms: _145  and  _148
REMARK   65  A    between atoms: _148  and  _149
REMARK   66  A    between atoms: _155  and  _157
REMARK   67  A    between atoms: _157  and  _158
REMARK   68  A    between atoms: _157  and  _160
REMARK   69  A    between atoms: _160  and  _161
REMARK   70  A    between atoms: _164  and  _166
REMARK   71  A    between atoms: _166  and  _167
REMARK   72  A    between atoms: _166  and  _169
REMARK   73  A    between atoms: _169  and  _170
REMARK   74  A    between atoms: _170  and  _171
REMARK   75  A    between atoms: _173  and  _175
REMARK   76  A    between atoms: _175  and  _176
REMARK   77  A    between atoms: _175  and  _178
REMARK   78  A    between atoms: _178  and  _179
REMARK   79  A    between atoms: _179  and  _180
REMARK   80  A    between atoms: _182  and  _184
REMARK   81  A    between atoms: _184  and  _185
REMARK   82  A    between atoms: _184  and  _187
REMARK   83  A    between atoms: _190  and  _192
REMARK   84  A    between atoms: _192  and  _193
REMARK   85  A    between atoms: _195  and  _197
REMARK   86  A    between atoms: _197  and  _198
REMARK   87  A    between atoms: _197  and  _200
REMARK   88  A    between atoms: _200  and  _201
REMARK   89  A    between atoms: _201  and  _202
REMARK   90  A    between atoms: _207  and  _209
REMARK   91  A    between atoms: _209  and  _210
REMARK   92  A    between atoms: _209  and  _212
REMARK   93  A    between atoms: _212  and  _213
REMARK   94  A    between atoms: _216  and  _218
REMARK   95  A    between atoms: _218  and  _219
REMARK   96  A    between atoms: _221  and  _223
REMARK   97  A    between atoms: _223  and  _224
REMARK   98  A    between atoms: _223  and  _226
REMARK   99  A    between atoms: _226  and  _227
REMARK  100  A    between atoms: _233  and  _235
REMARK  101  A    between atoms: _235  and  _236
REMARK  102  A    between atoms: _235  and  _238
REMARK  103  A    between atoms: _238  and  _239
REMARK  104  A    between atoms: _244  and  _245
REMARK  105  A    between atoms: _247  and  _249
REMARK  106  A    between atoms: _249  and  _250
REMARK  107  A    between atoms: _249  and  _252
REMARK  108  A    between atoms: _255  and  _257
REMARK  109  A    between atoms: _257  and  _258
REMARK  110  A    between atoms: _261  and  _263
REMARK  111  A    between atoms: _263  and  _264
REMARK  112  A    between atoms: _263  and  _266
REMARK  113  A    between atoms: _266  and  _267
REMARK                            x       y       z     vdW  Elec       q    Type
REMARK                         _______ _______ _______ _____ _____    ______ ____
ROOT
ATOM      1  O   HOH     1       8.884   3.463  43.712  0.00  0.00    +0.000 OA
ENDROOT
TORSDOF 0
REMARK  Name = ../refined-set-2016/4lm1/4lm1_pocket.pdb
REMARK  113 active torsions:
REMARK  status: ('A' for Active; 'I' for Inactive)
REMARK    1  A    between atoms: _1  and  _3
REMARK    2  A    between atoms: _3  and  _4
REMARK    3  A    between atoms: _3  and  _6
REMARK    4  A    between atoms: _6  and  _7
REMARK    5  A    between atoms: _12  and  _13
REMARK    6  A    between atoms: _15  and  _17
REMARK    7  A    between atoms: _17  and  _18
REMARK    8  A    between atoms: _17  and  _20
REMARK    9  A    between atoms: _20  and  _21
REMARK   10  A    between atoms: _26  and  _28
REMARK   11  A    between atoms: _28  and  _29
REMARK   12  A    between atoms: _28  and  _31
REMARK   13  A    between atoms: _31  and  _32
REMARK   14  A    between atoms: _36  and  NI_277
REMARK   15  A    between atoms: _37  and  _39
REMARK   16  A    between atoms: _39  and  _40
REMARK   17  A    between atoms: _39  and  _42
REMARK   18  A    between atoms: _42  and  _43
REMARK   19  A    between atoms: _46  and  _48
REMARK   20  A    between atoms: _48  and  _49
REMARK   21  A    between atoms: _48  and  _51
REMARK   22  A    between atoms: _51  and  _52
REMARK   23  A    between atoms: _55  and  _57
REMARK   24  A    between atoms: _57  and  _58
REMARK   25  A    between atoms: _57  and  _60
REMARK   26  A    between atoms: _60  and  _61
REMARK   27  A    between atoms: _61  and  _63
REMARK   28  A    between atoms: _63  and  NI_277
REMARK   29  A    between atoms: _64  and  _66
REMARK   30  A    between atoms: _66  and  _67
REMARK   31  A    between atoms: _66  and  _69
REMARK   32  A    between atoms: _69  and  _70
REMARK   33  A    between atoms: _73  and  _75
REMARK   34  A    between atoms: _75  and  _76
REMARK   35  A    between atoms: _75  and  _78
REMARK   36  A    between atoms: _80  and  _82
REMARK   37  A    between atoms: _82  and  _83
REMARK   38  A    between atoms: _82  and  _85
REMARK   39  A    between atoms: _85  and  _86
REMARK   40  A    between atoms: _88  and  _90
REMARK   41  A    between atoms: _90  and  _91
REMARK   42  A    between atoms: _90  and  _93
REMARK   43  A    between atoms: _96  and  _98
REMARK   44  A    between atoms: _98  and  _99
REMARK   45  A    between atoms: _98  and  _101
REMARK   46  A    between atoms: _101  and  _102
REMARK   47  A    between atoms: _105  and  _107
REMARK   48  A    between atoms: _107  and  _108
REMARK   49  A    between atoms: _107  and  _110
REMARK   50  A    between atoms: _110  and  _111
REMARK   51  A    between atoms: _114  and  _116
REMARK   52  A    between atoms: _116  and  _117
REMARK   53  A    between atoms: _120  and  _122
REMARK   54  A    between atoms: _122  and  _123
REMARK   55  A    between atoms: _122  and  _125
REMARK   56  A    between atoms: _125  and  _126
REMARK   57  A    between atoms: _129  and  _131
REMARK   58  A    between atoms: _131  and  _132
REMARK   59  A    between atoms: _131  and  _134
REMARK   60  A    between atoms: _134  and  _135
REMARK   61  A    between atoms: _140  and  _141
REMARK   62  A    between atoms: _143  and  _145
REMARK   63  A    between atoms: _145  and  _146
REMARK   64  A    between atoms: _145  and  _148
REMARK   65  A    between atoms: _148  and  _149
REMARK   66  A    between atoms: _155  and  _157
REMARK   67  A    between atoms: _157  and  _158
REMARK   68  A    between atoms: _157  and  _160
REMARK   69  A    between atoms: _160  and  _161
REMARK   70  A    between atoms: _164  and  _166
REMARK   71  A    between atoms: _166  and  _167
REMARK   72  A    between atoms: _166  and  _169
REMARK   73  A    between atoms: _169  and  _170
REMARK   74  A    between atoms: _170  and  _171
REMARK   75  A    between atoms: _173  and  _175
REMARK   76  A    between atoms: _175  and  _176
REMARK   77  A    between atoms: _175  and  _178
REMARK   78  A    between atoms: _178  and  _179
REMARK   79  A    between atoms: _179  and  _180
REMARK   80  A    between atoms: _182  and  _184
REMARK   81  A    between atoms: _184  and  _185
REMARK   82  A    between atoms: _184  and  _187
REMARK   83  A    between atoms: _190  and  _192
REMARK   84  A    between atoms: _192  and  _193
REMARK   85  A    between atoms: _195  and  _197
REMARK   86  A    between atoms: _197  and  _198
REMARK   87  A    between atoms: _197  and  _200
REMARK   88  A    between atoms: _200  and  _201
REMARK   89  A    between atoms: _201  and  _202
REMARK   90  A    between atoms: _207  and  _209
REMARK   91  A    between atoms: _209  and  _210
REMARK   92  A    between atoms: _209  and  _212
REMARK   93  A    between atoms: _212  and  _213
REMARK   94  A    between atoms: _216  and  _218
REMARK   95  A    between atoms: _218  and  _219
REMARK   96  A    between atoms: _221  and  _223
REMARK   97  A    between atoms: _223  and  _224
REMARK   98  A    between atoms: _223  and  _226
REMARK   99  A    between atoms: _226  and  _227
REMARK  100  A    between atoms: _233  and  _235
REMARK  101  A    between atoms: _235  and  _236
REMARK  102  A    between atoms: _235  and  _238
REMARK  103  A    between atoms: _238  and  _239
REMARK  104  A    between atoms: _244  and  _245
REMARK  105  A    between atoms: _247  and  _249
REMARK  106  A    between atoms: _249  and  _250
REMARK  107  A    between atoms: _249  and  _252
REMARK  108  A    between atoms: _255  and  _257
REMARK  109  A    between atoms: _257  and  _258
REMARK  110  A    between atoms: _261  and  _263
REMARK  111  A    between atoms: _263  and  _264
REMARK  112  A    between atoms: _263  and  _266
REMARK  113  A    between atoms: _266  and  _267
REMARK                            x       y       z     vdW  Elec       q    Type
REMARK                         _______ _______ _______ _____ _____    ______ ____
ROOT
ATOM      1  O   HOH     1       6.077  11.298  50.438  0.00  0.00    +0.000 OA
ENDROOT
TORSDOF 0
REMARK  Name = ../refined-set-2016/4lm1/4lm1_pocket.pdb
REMARK  113 active torsions:
REMARK  status: ('A' for Active; 'I' for Inactive)
REMARK    1  A    between atoms: _1  and  _3
REMARK    2  A    between atoms: _3  and  _4
REMARK    3  A    between atoms: _3  and  _6
REMARK    4  A    between atoms: _6  and  _7
REMARK    5  A    between atoms: _12  and  _13
REMARK    6  A    between atoms: _15  and  _17
REMARK    7  A    between atoms: _17  and  _18
REMARK    8  A    between atoms: _17  and  _20
REMARK    9  A    between atoms: _20  and  _21
REMARK   10  A    between atoms: _26  and  _28
REMARK   11  A    between atoms: _28  and  _29
REMARK   12  A    between atoms: _28  and  _31
REMARK   13  A    between atoms: _31  and  _32
REMARK   14  A    between atoms: _36  and  NI_277
REMARK   15  A    between atoms: _37  and  _39
REMARK   16  A    between atoms: _39  and  _40
REMARK   17  A    between atoms: _39  and  _42
REMARK   18  A    between atoms: _42  and  _43
REMARK   19  A    between atoms: _46  and  _48
REMARK   20  A    between atoms: _48  and  _49
REMARK   21  A    between atoms: _48  and  _51
REMARK   22  A    between atoms: _51  and  _52
REMARK   23  A    between atoms: _55  and  _57
REMARK   24  A    between atoms: _57  and  _58
REMARK   25  A    between atoms: _57  and  _60
REMARK   26  A    between atoms: _60  and  _61
REMARK   27  A    between atoms: _61  and  _63
REMARK   28  A    between atoms: _63  and  NI_277
REMARK   29  A    between atoms: _64  and  _66
REMARK   30  A    between atoms: _66  and  _67
REMARK   31  A    between atoms: _66  and  _69
REMARK   32  A    between atoms: _69  and  _70
REMARK   33  A    between atoms: _73  and  _75
REMARK   34  A    between atoms: _75  and  _76
REMARK   35  A    between atoms: _75  and  _78
REMARK   36  A    between atoms: _80  and  _82
REMARK   37  A    between atoms: _82  and  _83
REMARK   38  A    between atoms: _82  and  _85
REMARK   39  A    between atoms: _85  and  _86
REMARK   40  A    between atoms: _88  and  _90
REMARK   41  A    between atoms: _90  and  _91
REMARK   42  A    between atoms: _90  and  _93
REMARK   43  A    between atoms: _96  and  _98
REMARK   44  A    between atoms: _98  and  _99
REMARK   45  A    between atoms: _98  and  _101
REMARK   46  A    between atoms: _101  and  _102
REMARK   47  A    between atoms: _105  and  _107
REMARK   48  A    between atoms: _107  and  _108
REMARK   49  A    between atoms: _107  and  _110
REMARK   50  A    between atoms: _110  and  _111
REMARK   51  A    between atoms: _114  and  _116
REMARK   52  A    between atoms: _116  and  _117
REMARK   53  A    between atoms: _120  and  _122
REMARK   54  A    between atoms: _122  and  _123
REMARK   55  A    between atoms: _122  and  _125
REMARK   56  A    between atoms: _125  and  _126
REMARK   57  A    between atoms: _129  and  _131
REMARK   58  A    between atoms: _131  and  _132
REMARK   59  A    between atoms: _131  and  _134
REMARK   60  A    between atoms: _134  and  _135
REMARK   61  A    between atoms: _140  and  _141
REMARK   62  A    between atoms: _143  and  _145
REMARK   63  A    between atoms: _145  and  _146
REMARK   64  A    between atoms: _145  and  _148
REMARK   65  A    between atoms: _148  and  _149
REMARK   66  A    between atoms: _155  and  _157
REMARK   67  A    between atoms: _157  and  _158
REMARK   68  A    between atoms: _157  and  _160
REMARK   69  A    between atoms: _160  and  _161
REMARK   70  A    between atoms: _164  and  _166
REMARK   71  A    between atoms: _166  and  _167
REMARK   72  A    between atoms: _166  and  _169
REMARK   73  A    between atoms: _169  and  _170
REMARK   74  A    between atoms: _170  and  _171
REMARK   75  A    between atoms: _173  and  _175
REMARK   76  A    between atoms: _175  and  _176
REMARK   77  A    between atoms: _175  and  _178
REMARK   78  A    between atoms: _178  and  _179
REMARK   79  A    between atoms: _179  and  _180
REMARK   80  A    between atoms: _182  and  _184
REMARK   81  A    between atoms: _184  and  _185
REMARK   82  A    between atoms: _184  and  _187
REMARK   83  A    between atoms: _190  and  _192
REMARK   84  A    between atoms: _192  and  _193
REMARK   85  A    between atoms: _195  and  _197
REMARK   86  A    between atoms: _197  and  _198
REMARK   87  A    between atoms: _197  and  _200
REMARK   88  A    between atoms: _200  and  _201
REMARK   89  A    between atoms: _201  and  _202
REMARK   90  A    between atoms: _207  and  _209
REMARK   91  A    between atoms: _209  and  _210
REMARK   92  A    between atoms: _209  and  _212
REMARK   93  A    between atoms: _212  and  _213
REMARK   94  A    between atoms: _216  and  _218
REMARK   95  A    between atoms: _218  and  _219
REMARK   96  A    between atoms: _221  and  _223
REMARK   97  A    between atoms: _223  and  _224
REMARK   98  A    between atoms: _223  and  _226
REMARK   99  A    between atoms: _226  and  _227
REMARK  100  A    between atoms: _233  and  _235
REMARK  101  A    between atoms: _235  and  _236
REMARK  102  A    between atoms: _235  and  _238
REMARK  103  A    between atoms: _238  and  _239
REMARK  104  A    between atoms: _244  and  _245
REMARK  105  A    between atoms: _247  and  _249
REMARK  106  A    between atoms: _249  and  _250
REMARK  107  A    between atoms: _249  and  _252
REMARK  108  A    between atoms: _255  and  _257
REMARK  109  A    between atoms: _257  and  _258
REMARK  110  A    between atoms: _261  and  _263
REMARK  111  A    between atoms: _263  and  _264
REMARK  112  A    between atoms: _263  and  _266
REMARK  113  A    between atoms: _266  and  _267
REMARK                            x       y       z     vdW  Elec       q    Type
REMARK                         _______ _______ _______ _____ _____    ______ ____
ROOT
ATOM      1  O   HOH     1       9.228   8.016  46.346  0.00  0.00    +0.000 OA
ENDROOT
TORSDOF 0
REMARK  Name = ../refined-set-2016/4lm1/4lm1_pocket.pdb
REMARK  113 active torsions:
REMARK  status: ('A' for Active; 'I' for Inactive)
REMARK    1  A    between atoms: _1  and  _3
REMARK    2  A    between atoms: _3  and  _4
REMARK    3  A    between atoms: _3  and  _6
REMARK    4  A    between atoms: _6  and  _7
REMARK    5  A    between atoms: _12  and  _13
REMARK    6  A    between atoms: _15  and  _17
REMARK    7  A    between atoms: _17  and  _18
REMARK    8  A    between atoms: _17  and  _20
REMARK    9  A    between atoms: _20  and  _21
REMARK   10  A    between atoms: _26  and  _28
REMARK   11  A    between atoms: _28  and  _29
REMARK   12  A    between atoms: _28  and  _31
REMARK   13  A    between atoms: _31  and  _32
REMARK   14  A    between atoms: _36  and  NI_277
REMARK   15  A    between atoms: _37  and  _39
REMARK   16  A    between atoms: _39  and  _40
REMARK   17  A    between atoms: _39  and  _42
REMARK   18  A    between atoms: _42  and  _43
REMARK   19  A    between atoms: _46  and  _48
REMARK   20  A    between atoms: _48  and  _49
REMARK   21  A    between atoms: _48  and  _51
REMARK   22  A    between atoms: _51  and  _52
REMARK   23  A    between atoms: _55  and  _57
REMARK   24  A    between atoms: _57  and  _58
REMARK   25  A    between atoms: _57  and  _60
REMARK   26  A    between atoms: _60  and  _61
REMARK   27  A    between atoms: _61  and  _63
REMARK   28  A    between atoms: _63  and  NI_277
REMARK   29  A    between atoms: _64  and  _66
REMARK   30  A    between atoms: _66  and  _67
REMARK   31  A    between atoms: _66  and  _69
REMARK   32  A    between atoms: _69  and  _70
REMARK   33  A    between atoms: _73  and  _75
REMARK   34  A    between atoms: _75  and  _76
REMARK   35  A    between atoms: _75  and  _78
REMARK   36  A    between atoms: _80  and  _82
REMARK   37  A    between atoms: _82  and  _83
REMARK   38  A    between atoms: _82  and  _85
REMARK   39  A    between atoms: _85  and  _86
REMARK   40  A    between atoms: _88  and  _90
REMARK   41  A    between atoms: _90  and  _91
REMARK   42  A    between atoms: _90  and  _93
REMARK   43  A    between atoms: _96  and  _98
REMARK   44  A    between atoms: _98  and  _99
REMARK   45  A    between atoms: _98  and  _101
REMARK   46  A    between atoms: _101  and  _102
REMARK   47  A    between atoms: _105  and  _107
REMARK   48  A    between atoms: _107  and  _108
REMARK   49  A    between atoms: _107  and  _110
REMARK   50  A    between atoms: _110  and  _111
REMARK   51  A    between atoms: _114  and  _116
REMARK   52  A    between atoms: _116  and  _117
REMARK   53  A    between atoms: _120  and  _122
REMARK   54  A    between atoms: _122  and  _123
REMARK   55  A    between atoms: _122  and  _125
REMARK   56  A    between atoms: _125  and  _126
REMARK   57  A    between atoms: _129  and  _131
REMARK   58  A    between atoms: _131  and  _132
REMARK   59  A    between atoms: _131  and  _134
REMARK   60  A    between atoms: _134  and  _135
REMARK   61  A    between atoms: _140  and  _141
REMARK   62  A    between atoms: _143  and  _145
REMARK   63  A    between atoms: _145  and  _146
REMARK   64  A    between atoms: _145  and  _148
REMARK   65  A    between atoms: _148  and  _149
REMARK   66  A    between atoms: _155  and  _157
REMARK   67  A    between atoms: _157  and  _158
REMARK   68  A    between atoms: _157  and  _160
REMARK   69  A    between atoms: _160  and  _161
REMARK   70  A    between atoms: _164  and  _166
REMARK   71  A    between atoms: _166  and  _167
REMARK   72  A    between atoms: _166  and  _169
REMARK   73  A    between atoms: _169  and  _170
REMARK   74  A    between atoms: _170  and  _171
REMARK   75  A    between atoms: _173  and  _175
REMARK   76  A    between atoms: _175  and  _176
REMARK   77  A    between atoms: _175  and  _178
REMARK   78  A    between atoms: _178  and  _179
REMARK   79  A    between atoms: _179  and  _180
REMARK   80  A    between atoms: _182  and  _184
REMARK   81  A    between atoms: _184  and  _185
REMARK   82  A    between atoms: _184  and  _187
REMARK   83  A    between atoms: _190  and  _192
REMARK   84  A    between atoms: _192  and  _193
REMARK   85  A    between atoms: _195  and  _197
REMARK   86  A    between atoms: _197  and  _198
REMARK   87  A    between atoms: _197  and  _200
REMARK   88  A    between atoms: _200  and  _201
REMARK   89  A    between atoms: _201  and  _202
REMARK   90  A    between atoms: _207  and  _209
REMARK   91  A    between atoms: _209  and  _210
REMARK   92  A    between atoms: _209  and  _212
REMARK   93  A    between atoms: _212  and  _213
REMARK   94  A    between atoms: _216  and  _218
REMARK   95  A    between atoms: _218  and  _219
REMARK   96  A    between atoms: _221  and  _223
REMARK   97  A    between atoms: _223  and  _224
REMARK   98  A    between atoms: _223  and  _226
REMARK   99  A    between atoms: _226  and  _227
REMARK  100  A    between atoms: _233  and  _235
REMARK  101  A    between atoms: _235  and  _236
REMARK  102  A    between atoms: _235  and  _238
REMARK  103  A    between atoms: _238  and  _239
REMARK  104  A    between atoms: _244  and  _245
REMARK  105  A    between atoms: _247  and  _249
REMARK  106  A    between atoms: _249  and  _250
REMARK  107  A    between atoms: _249  and  _252
REMARK  108  A    between atoms: _255  and  _257
REMARK  109  A    between atoms: _257  and  _258
REMARK  110  A    between atoms: _261  and  _263
REMARK  111  A    between atoms: _263  and  _264
REMARK  112  A    between atoms: _263  and  _266
REMARK  113  A    between atoms: _266  and  _267
REMARK                            x       y       z     vdW  Elec       q    Type
REMARK                         _______ _______ _______ _____ _____    ______ ____
ROOT
ATOM      1  O   HOH     1       1.606  17.953  46.874  0.00  0.00    +0.000 OA
ENDROOT
TORSDOF 0
REMARK  Name = ../refined-set-2016/4lm1/4lm1_pocket.pdb
REMARK  113 active torsions:
REMARK  status: ('A' for Active; 'I' for Inactive)
REMARK    1  A    between atoms: _1  and  _3
REMARK    2  A    between atoms: _3  and  _4
REMARK    3  A    between atoms: _3  and  _6
REMARK    4  A    between atoms: _6  and  _7
REMARK    5  A    between atoms: _12  and  _13
REMARK    6  A    between atoms: _15  and  _17
REMARK    7  A    between atoms: _17  and  _18
REMARK    8  A    between atoms: _17  and  _20
REMARK    9  A    between atoms: _20  and  _21
REMARK   10  A    between atoms: _26  and  _28
REMARK   11  A    between atoms: _28  and  _29
REMARK   12  A    between atoms: _28  and  _31
REMARK   13  A    between atoms: _31  and  _32
REMARK   14  A    between atoms: _36  and  NI_277
REMARK   15  A    between atoms: _37  and  _39
REMARK   16  A    between atoms: _39  and  _40
REMARK   17  A    between atoms: _39  and  _42
REMARK   18  A    between atoms: _42  and  _43
REMARK   19  A    between atoms: _46  and  _48
REMARK   20  A    between atoms: _48  and  _49
REMARK   21  A    between atoms: _48  and  _51
REMARK   22  A    between atoms: _51  and  _52
REMARK   23  A    between atoms: _55  and  _57
REMARK   24  A    between atoms: _57  and  _58
REMARK   25  A    between atoms: _57  and  _60
REMARK   26  A    between atoms: _60  and  _61
REMARK   27  A    between atoms: _61  and  _63
REMARK   28  A    between atoms: _63  and  NI_277
REMARK   29  A    between atoms: _64  and  _66
REMARK   30  A    between atoms: _66  and  _67
REMARK   31  A    between atoms: _66  and  _69
REMARK   32  A    between atoms: _69  and  _70
REMARK   33  A    between atoms: _73  and  _75
REMARK   34  A    between atoms: _75  and  _76
REMARK   35  A    between atoms: _75  and  _78
REMARK   36  A    between atoms: _80  and  _82
REMARK   37  A    between atoms: _82  and  _83
REMARK   38  A    between atoms: _82  and  _85
REMARK   39  A    between atoms: _85  and  _86
REMARK   40  A    between atoms: _88  and  _90
REMARK   41  A    between atoms: _90  and  _91
REMARK   42  A    between atoms: _90  and  _93
REMARK   43  A    between atoms: _96  and  _98
REMARK   44  A    between atoms: _98  and  _99
REMARK   45  A    between atoms: _98  and  _101
REMARK   46  A    between atoms: _101  and  _102
REMARK   47  A    between atoms: _105  and  _107
REMARK   48  A    between atoms: _107  and  _108
REMARK   49  A    between atoms: _107  and  _110
REMARK   50  A    between atoms: _110  and  _111
REMARK   51  A    between atoms: _114  and  _116
REMARK   52  A    between atoms: _116  and  _117
REMARK   53  A    between atoms: _120  and  _122
REMARK   54  A    between atoms: _122  and  _123
REMARK   55  A    between atoms: _122  and  _125
REMARK   56  A    between atoms: _125  and  _126
REMARK   57  A    between atoms: _129  and  _131
REMARK   58  A    between atoms: _131  and  _132
REMARK   59  A    between atoms: _131  and  _134
REMARK   60  A    between atoms: _134  and  _135
REMARK   61  A    between atoms: _140  and  _141
REMARK   62  A    between atoms: _143  and  _145
REMARK   63  A    between atoms: _145  and  _146
REMARK   64  A    between atoms: _145  and  _148
REMARK   65  A    between atoms: _148  and  _149
REMARK   66  A    between atoms: _155  and  _157
REMARK   67  A    between atoms: _157  and  _158
REMARK   68  A    between atoms: _157  and  _160
REMARK   69  A    between atoms: _160  and  _161
REMARK   70  A    between atoms: _164  and  _166
REMARK   71  A    between atoms: _166  and  _167
REMARK   72  A    between atoms: _166  and  _169
REMARK   73  A    between atoms: _169  and  _170
REMARK   74  A    between atoms: _170  and  _171
REMARK   75  A    between atoms: _173  and  _175
REMARK   76  A    between atoms: _175  and  _176
REMARK   77  A    between atoms: _175  and  _178
REMARK   78  A    between atoms: _178  and  _179
REMARK   79  A    between atoms: _179  and  _180
REMARK   80  A    between atoms: _182  and  _184
REMARK   81  A    between atoms: _184  and  _185
REMARK   82  A    between atoms: _184  and  _187
REMARK   83  A    between atoms: _190  and  _192
REMARK   84  A    between atoms: _192  and  _193
REMARK   85  A    between atoms: _195  and  _197
REMARK   86  A    between atoms: _197  and  _198
REMARK   87  A    between atoms: _197  and  _200
REMARK   88  A    between atoms: _200  and  _201
REMARK   89  A    between atoms: _201  and  _202
REMARK   90  A    between atoms: _207  and  _209
REMARK   91  A    between atoms: _209  and  _210
REMARK   92  A    between atoms: _209  and  _212
REMARK   93  A    between atoms: _212  and  _213
REMARK   94  A    between atoms: _216  and  _218
REMARK   95  A    between atoms: _218  and  _219
REMARK   96  A    between atoms: _221  and  _223
REMARK   97  A    between atoms: _223  and  _224
REMARK   98  A    between atoms: _223  and  _226
REMARK   99  A    between atoms: _226  and  _227
REMARK  100  A    between atoms: _233  and  _235
REMARK  101  A    between atoms: _235  and  _236
REMARK  102  A    between atoms: _235  and  _238
REMARK  103  A    between atoms: _238  and  _239
REMARK  104  A    between atoms: _244  and  _245
REMARK  105  A    between atoms: _247  and  _249
REMARK  106  A    between atoms: _249  and  _250
REMARK  107  A    between atoms: _249  and  _252
REMARK  108  A    between atoms: _255  and  _257
REMARK  109  A    between atoms: _257  and  _258
REMARK  110  A    between atoms: _261  and  _263
REMARK  111  A    between atoms: _263  and  _264
REMARK  112  A    between atoms: _263  and  _266
REMARK  113  A    between atoms: _266  and  _267
REMARK                            x       y       z     vdW  Elec       q    Type
REMARK                         _______ _______ _______ _____ _____    ______ ____
ROOT
ATOM      1  O   HOH     1       4.685   4.032  45.739  0.00  0.00    +0.000 OA
ENDROOT
TORSDOF 0
REMARK  Name = ../refined-set-2016/4lm1/4lm1_pocket.pdb
REMARK  113 active torsions:
REMARK  status: ('A' for Active; 'I' for Inactive)
REMARK    1  A    between atoms: _1  and  _3
REMARK    2  A    between atoms: _3  and  _4
REMARK    3  A    between atoms: _3  and  _6
REMARK    4  A    between atoms: _6  and  _7
REMARK    5  A    between atoms: _12  and  _13
REMARK    6  A    between atoms: _15  and  _17
REMARK    7  A    between atoms: _17  and  _18
REMARK    8  A    between atoms: _17  and  _20
REMARK    9  A    between atoms: _20  and  _21
REMARK   10  A    between atoms: _26  and  _28
REMARK   11  A    between atoms: _28  and  _29
REMARK   12  A    between atoms: _28  and  _31
REMARK   13  A    between atoms: _31  and  _32
REMARK   14  A    between atoms: _36  and  NI_277
REMARK   15  A    between atoms: _37  and  _39
REMARK   16  A    between atoms: _39  and  _40
REMARK   17  A    between atoms: _39  and  _42
REMARK   18  A    between atoms: _42  and  _43
REMARK   19  A    between atoms: _46  and  _48
REMARK   20  A    between atoms: _48  and  _49
REMARK   21  A    between atoms: _48  and  _51
REMARK   22  A    between atoms: _51  and  _52
REMARK   23  A    between atoms: _55  and  _57
REMARK   24  A    between atoms: _57  and  _58
REMARK   25  A    between atoms: _57  and  _60
REMARK   26  A    between atoms: _60  and  _61
REMARK   27  A    between atoms: _61  and  _63
REMARK   28  A    between atoms: _63  and  NI_277
REMARK   29  A    between atoms: _64  and  _66
REMARK   30  A    between atoms: _66  and  _67
REMARK   31  A    between atoms: _66  and  _69
REMARK   32  A    between atoms: _69  and  _70
REMARK   33  A    between atoms: _73  and  _75
REMARK   34  A    between atoms: _75  and  _76
REMARK   35  A    between atoms: _75  and  _78
REMARK   36  A    between atoms: _80  and  _82
REMARK   37  A    between atoms: _82  and  _83
REMARK   38  A    between atoms: _82  and  _85
REMARK   39  A    between atoms: _85  and  _86
REMARK   40  A    between atoms: _88  and  _90
REMARK   41  A    between atoms: _90  and  _91
REMARK   42  A    between atoms: _90  and  _93
REMARK   43  A    between atoms: _96  and  _98
REMARK   44  A    between atoms: _98  and  _99
REMARK   45  A    between atoms: _98  and  _101
REMARK   46  A    between atoms: _101  and  _102
REMARK   47  A    between atoms: _105  and  _107
REMARK   48  A    between atoms: _107  and  _108
REMARK   49  A    between atoms: _107  and  _110
REMARK   50  A    between atoms: _110  and  _111
REMARK   51  A    between atoms: _114  and  _116
REMARK   52  A    between atoms: _116  and  _117
REMARK   53  A    between atoms: _120  and  _122
REMARK   54  A    between atoms: _122  and  _123
REMARK   55  A    between atoms: _122  and  _125
REMARK   56  A    between atoms: _125  and  _126
REMARK   57  A    between atoms: _129  and  _131
REMARK   58  A    between atoms: _131  and  _132
REMARK   59  A    between atoms: _131  and  _134
REMARK   60  A    between atoms: _134  and  _135
REMARK   61  A    between atoms: _140  and  _141
REMARK   62  A    between atoms: _143  and  _145
REMARK   63  A    between atoms: _145  and  _146
REMARK   64  A    between atoms: _145  and  _148
REMARK   65  A    between atoms: _148  and  _149
REMARK   66  A    between atoms: _155  and  _157
REMARK   67  A    between atoms: _157  and  _158
REMARK   68  A    between atoms: _157  and  _160
REMARK   69  A    between atoms: _160  and  _161
REMARK   70  A    between atoms: _164  and  _166
REMARK   71  A    between atoms: _166  and  _167
REMARK   72  A    between atoms: _166  and  _169
REMARK   73  A    between atoms: _169  and  _170
REMARK   74  A    between atoms: _170  and  _171
REMARK   75  A    between atoms: _173  and  _175
REMARK   76  A    between atoms: _175  and  _176
REMARK   77  A    between atoms: _175  and  _178
REMARK   78  A    between atoms: _178  and  _179
REMARK   79  A    between atoms: _179  and  _180
REMARK   80  A    between atoms: _182  and  _184
REMARK   81  A    between atoms: _184  and  _185
REMARK   82  A    between atoms: _184  and  _187
REMARK   83  A    between atoms: _190  and  _192
REMARK   84  A    between atoms: _192  and  _193
REMARK   85  A    between atoms: _195  and  _197
REMARK   86  A    between atoms: _197  and  _198
REMARK   87  A    between atoms: _197  and  _200
REMARK   88  A    between atoms: _200  and  _201
REMARK   89  A    between atoms: _201  and  _202
REMARK   90  A    between atoms: _207  and  _209
REMARK   91  A    between atoms: _209  and  _210
REMARK   92  A    between atoms: _209  and  _212
REMARK   93  A    between atoms: _212  and  _213
REMARK   94  A    between atoms: _216  and  _218
REMARK   95  A    between atoms: _218  and  _219
REMARK   96  A    between atoms: _221  and  _223
REMARK   97  A    between atoms: _223  and  _224
REMARK   98  A    between atoms: _223  and  _226
REMARK   99  A    between atoms: _226  and  _227
REMARK  100  A    between atoms: _233  and  _235
REMARK  101  A    between atoms: _235  and  _236
REMARK  102  A    between atoms: _235  and  _238
REMARK  103  A    between atoms: _238  and  _239
REMARK  104  A    between atoms: _244  and  _245
REMARK  105  A    between atoms: _247  and  _249
REMARK  106  A    between atoms: _249  and  _250
REMARK  107  A    between atoms: _249  and  _252
REMARK  108  A    between atoms: _255  and  _257
REMARK  109  A    between atoms: _257  and  _258
REMARK  110  A    between atoms: _261  and  _263
REMARK  111  A    between atoms: _263  and  _264
REMARK  112  A    between atoms: _263  and  _266
REMARK  113  A    between atoms: _266  and  _267
REMARK                            x       y       z     vdW  Elec       q    Type
REMARK                         _______ _______ _______ _____ _____    ______ ____
ROOT
ATOM      1  O   HOH     1       6.906   4.788  41.596  0.00  0.00    +0.000 OA
ENDROOT
TORSDOF 0
REMARK  Name = ../refined-set-2016/4lm1/4lm1_pocket.pdb
REMARK  113 active torsions:
REMARK  status: ('A' for Active; 'I' for Inactive)
REMARK    1  A    between atoms: _1  and  _3
REMARK    2  A    between atoms: _3  and  _4
REMARK    3  A    between atoms: _3  and  _6
REMARK    4  A    between atoms: _6  and  _7
REMARK    5  A    between atoms: _12  and  _13
REMARK    6  A    between atoms: _15  and  _17
REMARK    7  A    between atoms: _17  and  _18
REMARK    8  A    between atoms: _17  and  _20
REMARK    9  A    between atoms: _20  and  _21
REMARK   10  A    between atoms: _26  and  _28
REMARK   11  A    between atoms: _28  and  _29
REMARK   12  A    between atoms: _28  and  _31
REMARK   13  A    between atoms: _31  and  _32
REMARK   14  A    between atoms: _36  and  NI_277
REMARK   15  A    between atoms: _37  and  _39
REMARK   16  A    between atoms: _39  and  _40
REMARK   17  A    between atoms: _39  and  _42
REMARK   18  A    between atoms: _42  and  _43
REMARK   19  A    between atoms: _46  and  _48
REMARK   20  A    between atoms: _48  and  _49
REMARK   21  A    between atoms: _48  and  _51
REMARK   22  A    between atoms: _51  and  _52
REMARK   23  A    between atoms: _55  and  _57
REMARK   24  A    between atoms: _57  and  _58
REMARK   25  A    between atoms: _57  and  _60
REMARK   26  A    between atoms: _60  and  _61
REMARK   27  A    between atoms: _61  and  _63
REMARK   28  A    between atoms: _63  and  NI_277
REMARK   29  A    between atoms: _64  and  _66
REMARK   30  A    between atoms: _66  and  _67
REMARK   31  A    between atoms: _66  and  _69
REMARK   32  A    between atoms: _69  and  _70
REMARK   33  A    between atoms: _73  and  _75
REMARK   34  A    between atoms: _75  and  _76
REMARK   35  A    between atoms: _75  and  _78
REMARK   36  A    between atoms: _80  and  _82
REMARK   37  A    between atoms: _82  and  _83
REMARK   38  A    between atoms: _82  and  _85
REMARK   39  A    between atoms: _85  and  _86
REMARK   40  A    between atoms: _88  and  _90
REMARK   41  A    between atoms: _90  and  _91
REMARK   42  A    between atoms: _90  and  _93
REMARK   43  A    between atoms: _96  and  _98
REMARK   44  A    between atoms: _98  and  _99
REMARK   45  A    between atoms: _98  and  _101
REMARK   46  A    between atoms: _101  and  _102
REMARK   47  A    between atoms: _105  and  _107
REMARK   48  A    between atoms: _107  and  _108
REMARK   49  A    between atoms: _107  and  _110
REMARK   50  A    between atoms: _110  and  _111
REMARK   51  A    between atoms: _114  and  _116
REMARK   52  A    between atoms: _116  and  _117
REMARK   53  A    between atoms: _120  and  _122
REMARK   54  A    between atoms: _122  and  _123
REMARK   55  A    between atoms: _122  and  _125
REMARK   56  A    between atoms: _125  and  _126
REMARK   57  A    between atoms: _129  and  _131
REMARK   58  A    between atoms: _131  and  _132
REMARK   59  A    between atoms: _131  and  _134
REMARK   60  A    between atoms: _134  and  _135
REMARK   61  A    between atoms: _140  and  _141
REMARK   62  A    between atoms: _143  and  _145
REMARK   63  A    between atoms: _145  and  _146
REMARK   64  A    between atoms: _145  and  _148
REMARK   65  A    between atoms: _148  and  _149
REMARK   66  A    between atoms: _155  and  _157
REMARK   67  A    between atoms: _157  and  _158
REMARK   68  A    between atoms: _157  and  _160
REMARK   69  A    between atoms: _160  and  _161
REMARK   70  A    between atoms: _164  and  _166
REMARK   71  A    between atoms: _166  and  _167
REMARK   72  A    between atoms: _166  and  _169
REMARK   73  A    between atoms: _169  and  _170
REMARK   74  A    between atoms: _170  and  _171
REMARK   75  A    between atoms: _173  and  _175
REMARK   76  A    between atoms: _175  and  _176
REMARK   77  A    between atoms: _175  and  _178
REMARK   78  A    between atoms: _178  and  _179
REMARK   79  A    between atoms: _179  and  _180
REMARK   80  A    between atoms: _182  and  _184
REMARK   81  A    between atoms: _184  and  _185
REMARK   82  A    between atoms: _184  and  _187
REMARK   83  A    between atoms: _190  and  _192
REMARK   84  A    between atoms: _192  and  _193
REMARK   85  A    between atoms: _195  and  _197
REMARK   86  A    between atoms: _197  and  _198
REMARK   87  A    between atoms: _197  and  _200
REMARK   88  A    between atoms: _200  and  _201
REMARK   89  A    between atoms: _201  and  _202
REMARK   90  A    between atoms: _207  and  _209
REMARK   91  A    between atoms: _209  and  _210
REMARK   92  A    between atoms: _209  and  _212
REMARK   93  A    between atoms: _212  and  _213
REMARK   94  A    between atoms: _216  and  _218
REMARK   95  A    between atoms: _218  and  _219
REMARK   96  A    between atoms: _221  and  _223
REMARK   97  A    between atoms: _223  and  _224
REMARK   98  A    between atoms: _223  and  _226
REMARK   99  A    between atoms: _226  and  _227
REMARK  100  A    between atoms: _233  and  _235
REMARK  101  A    between atoms: _235  and  _236
REMARK  102  A    between atoms: _235  and  _238
REMARK  103  A    between atoms: _238  and  _239
REMARK  104  A    between atoms: _244  and  _245
REMARK  105  A    between atoms: _247  and  _249
REMARK  106  A    between atoms: _249  and  _250
REMARK  107  A    between atoms: _249  and  _252
REMARK  108  A    between atoms: _255  and  _257
REMARK  109  A    between atoms: _257  and  _258
REMARK  110  A    between atoms: _261  and  _263
REMARK  111  A    between atoms: _263  and  _264
REMARK  112  A    between atoms: _263  and  _266
REMARK  113  A    between atoms: _266  and  _267
REMARK                            x       y       z     vdW  Elec       q    Type
REMARK                         _______ _______ _______ _____ _____    ______ ____
ROOT
ATOM      1  O   HOH     1       7.060   9.312  47.120  0.00  0.00    +0.000 OA
ENDROOT
TORSDOF 0
REMARK  Name = ../refined-set-2016/4lm1/4lm1_pocket.pdb
REMARK  113 active torsions:
REMARK  status: ('A' for Active; 'I' for Inactive)
REMARK    1  A    between atoms: _1  and  _3
REMARK    2  A    between atoms: _3  and  _4
REMARK    3  A    between atoms: _3  and  _6
REMARK    4  A    between atoms: _6  and  _7
REMARK    5  A    between atoms: _12  and  _13
REMARK    6  A    between atoms: _15  and  _17
REMARK    7  A    between atoms: _17  and  _18
REMARK    8  A    between atoms: _17  and  _20
REMARK    9  A    between atoms: _20  and  _21
REMARK   10  A    between atoms: _26  and  _28
REMARK   11  A    between atoms: _28  and  _29
REMARK   12  A    between atoms: _28  and  _31
REMARK   13  A    between atoms: _31  and  _32
REMARK   14  A    between atoms: _36  and  NI_277
REMARK   15  A    between atoms: _37  and  _39
REMARK   16  A    between atoms: _39  and  _40
REMARK   17  A    between atoms: _39  and  _42
REMARK   18  A    between atoms: _42  and  _43
REMARK   19  A    between atoms: _46  and  _48
REMARK   20  A    between atoms: _48  and  _49
REMARK   21  A    between atoms: _48  and  _51
REMARK   22  A    between atoms: _51  and  _52
REMARK   23  A    between atoms: _55  and  _57
REMARK   24  A    between atoms: _57  and  _58
REMARK   25  A    between atoms: _57  and  _60
REMARK   26  A    between atoms: _60  and  _61
REMARK   27  A    between atoms: _61  and  _63
REMARK   28  A    between atoms: _63  and  NI_277
REMARK   29  A    between atoms: _64  and  _66
REMARK   30  A    between atoms: _66  and  _67
REMARK   31  A    between atoms: _66  and  _69
REMARK   32  A    between atoms: _69  and  _70
REMARK   33  A    between atoms: _73  and  _75
REMARK   34  A    between atoms: _75  and  _76
REMARK   35  A    between atoms: _75  and  _78
REMARK   36  A    between atoms: _80  and  _82
REMARK   37  A    between atoms: _82  and  _83
REMARK   38  A    between atoms: _82  and  _85
REMARK   39  A    between atoms: _85  and  _86
REMARK   40  A    between atoms: _88  and  _90
REMARK   41  A    between atoms: _90  and  _91
REMARK   42  A    between atoms: _90  and  _93
REMARK   43  A    between atoms: _96  and  _98
REMARK   44  A    between atoms: _98  and  _99
REMARK   45  A    between atoms: _98  and  _101
REMARK   46  A    between atoms: _101  and  _102
REMARK   47  A    between atoms: _105  and  _107
REMARK   48  A    between atoms: _107  and  _108
REMARK   49  A    between atoms: _107  and  _110
REMARK   50  A    between atoms: _110  and  _111
REMARK   51  A    between atoms: _114  and  _116
REMARK   52  A    between atoms: _116  and  _117
REMARK   53  A    between atoms: _120  and  _122
REMARK   54  A    between atoms: _122  and  _123
REMARK   55  A    between atoms: _122  and  _125
REMARK   56  A    between atoms: _125  and  _126
REMARK   57  A    between atoms: _129  and  _131
REMARK   58  A    between atoms: _131  and  _132
REMARK   59  A    between atoms: _131  and  _134
REMARK   60  A    between atoms: _134  and  _135
REMARK   61  A    between atoms: _140  and  _141
REMARK   62  A    between atoms: _143  and  _145
REMARK   63  A    between atoms: _145  and  _146
REMARK   64  A    between atoms: _145  and  _148
REMARK   65  A    between atoms: _148  and  _149
REMARK   66  A    between atoms: _155  and  _157
REMARK   67  A    between atoms: _157  and  _158
REMARK   68  A    between atoms: _157  and  _160
REMARK   69  A    between atoms: _160  and  _161
REMARK   70  A    between atoms: _164  and  _166
REMARK   71  A    between atoms: _166  and  _167
REMARK   72  A    between atoms: _166  and  _169
REMARK   73  A    between atoms: _169  and  _170
REMARK   74  A    between atoms: _170  and  _171
REMARK   75  A    between atoms: _173  and  _175
REMARK   76  A    between atoms: _175  and  _176
REMARK   77  A    between atoms: _175  and  _178
REMARK   78  A    between atoms: _178  and  _179
REMARK   79  A    between atoms: _179  and  _180
REMARK   80  A    between atoms: _182  and  _184
REMARK   81  A    between atoms: _184  and  _185
REMARK   82  A    between atoms: _184  and  _187
REMARK   83  A    between atoms: _190  and  _192
REMARK   84  A    between atoms: _192  and  _193
REMARK   85  A    between atoms: _195  and  _197
REMARK   86  A    between atoms: _197  and  _198
REMARK   87  A    between atoms: _197  and  _200
REMARK   88  A    between atoms: _200  and  _201
REMARK   89  A    between atoms: _201  and  _202
REMARK   90  A    between atoms: _207  and  _209
REMARK   91  A    between atoms: _209  and  _210
REMARK   92  A    between atoms: _209  and  _212
REMARK   93  A    between atoms: _212  and  _213
REMARK   94  A    between atoms: _216  and  _218
REMARK   95  A    between atoms: _218  and  _219
REMARK   96  A    between atoms: _221  and  _223
REMARK   97  A    between atoms: _223  and  _224
REMARK   98  A    between atoms: _223  and  _226
REMARK   99  A    between atoms: _226  and  _227
REMARK  100  A    between atoms: _233  and  _235
REMARK  101  A    between atoms: _235  and  _236
REMARK  102  A    between atoms: _235  and  _238
REMARK  103  A    between atoms: _238  and  _239
REMARK  104  A    between atoms: _244  and  _245
REMARK  105  A    between atoms: _247  and  _249
REMARK  106  A    between atoms: _249  and  _250
REMARK  107  A    between atoms: _249  and  _252
REMARK  108  A    between atoms: _255  and  _257
REMARK  109  A    between atoms: _257  and  _258
REMARK  110  A    between atoms: _261  and  _263
REMARK  111  A    between atoms: _263  and  _264
REMARK  112  A    between atoms: _263  and  _266
REMARK  113  A    between atoms: _266  and  _267
REMARK                            x       y       z     vdW  Elec       q    Type
REMARK                         _______ _______ _______ _____ _____    ______ ____
ROOT
ATOM      1  O   HOH     1      11.557   6.622  41.409  0.00  0.00    +0.000 OA
ENDROOT
TORSDOF 0
REMARK  Name = ../refined-set-2016/4lm1/4lm1_pocket.pdb
REMARK  113 active torsions:
REMARK  status: ('A' for Active; 'I' for Inactive)
REMARK    1  A    between atoms: _1  and  _3
REMARK    2  A    between atoms: _3  and  _4
REMARK    3  A    between atoms: _3  and  _6
REMARK    4  A    between atoms: _6  and  _7
REMARK    5  A    between atoms: _12  and  _13
REMARK    6  A    between atoms: _15  and  _17
REMARK    7  A    between atoms: _17  and  _18
REMARK    8  A    between atoms: _17  and  _20
REMARK    9  A    between atoms: _20  and  _21
REMARK   10  A    between atoms: _26  and  _28
REMARK   11  A    between atoms: _28  and  _29
REMARK   12  A    between atoms: _28  and  _31
REMARK   13  A    between atoms: _31  and  _32
REMARK   14  A    between atoms: _36  and  NI_277
REMARK   15  A    between atoms: _37  and  _39
REMARK   16  A    between atoms: _39  and  _40
REMARK   17  A    between atoms: _39  and  _42
REMARK   18  A    between atoms: _42  and  _43
REMARK   19  A    between atoms: _46  and  _48
REMARK   20  A    between atoms: _48  and  _49
REMARK   21  A    between atoms: _48  and  _51
REMARK   22  A    between atoms: _51  and  _52
REMARK   23  A    between atoms: _55  and  _57
REMARK   24  A    between atoms: _57  and  _58
REMARK   25  A    between atoms: _57  and  _60
REMARK   26  A    between atoms: _60  and  _61
REMARK   27  A    between atoms: _61  and  _63
REMARK   28  A    between atoms: _63  and  NI_277
REMARK   29  A    between atoms: _64  and  _66
REMARK   30  A    between atoms: _66  and  _67
REMARK   31  A    between atoms: _66  and  _69
REMARK   32  A    between atoms: _69  and  _70
REMARK   33  A    between atoms: _73  and  _75
REMARK   34  A    between atoms: _75  and  _76
REMARK   35  A    between atoms: _75  and  _78
REMARK   36  A    between atoms: _80  and  _82
REMARK   37  A    between atoms: _82  and  _83
REMARK   38  A    between atoms: _82  and  _85
REMARK   39  A    between atoms: _85  and  _86
REMARK   40  A    between atoms: _88  and  _90
REMARK   41  A    between atoms: _90  and  _91
REMARK   42  A    between atoms: _90  and  _93
REMARK   43  A    between atoms: _96  and  _98
REMARK   44  A    between atoms: _98  and  _99
REMARK   45  A    between atoms: _98  and  _101
REMARK   46  A    between atoms: _101  and  _102
REMARK   47  A    between atoms: _105  and  _107
REMARK   48  A    between atoms: _107  and  _108
REMARK   49  A    between atoms: _107  and  _110
REMARK   50  A    between atoms: _110  and  _111
REMARK   51  A    between atoms: _114  and  _116
REMARK   52  A    between atoms: _116  and  _117
REMARK   53  A    between atoms: _120  and  _122
REMARK   54  A    between atoms: _122  and  _123
REMARK   55  A    between atoms: _122  and  _125
REMARK   56  A    between atoms: _125  and  _126
REMARK   57  A    between atoms: _129  and  _131
REMARK   58  A    between atoms: _131  and  _132
REMARK   59  A    between atoms: _131  and  _134
REMARK   60  A    between atoms: _134  and  _135
REMARK   61  A    between atoms: _140  and  _141
REMARK   62  A    between atoms: _143  and  _145
REMARK   63  A    between atoms: _145  and  _146
REMARK   64  A    between atoms: _145  and  _148
REMARK   65  A    between atoms: _148  and  _149
REMARK   66  A    between atoms: _155  and  _157
REMARK   67  A    between atoms: _157  and  _158
REMARK   68  A    between atoms: _157  and  _160
REMARK   69  A    between atoms: _160  and  _161
REMARK   70  A    between atoms: _164  and  _166
REMARK   71  A    between atoms: _166  and  _167
REMARK   72  A    between atoms: _166  and  _169
REMARK   73  A    between atoms: _169  and  _170
REMARK   74  A    between atoms: _170  and  _171
REMARK   75  A    between atoms: _173  and  _175
REMARK   76  A    between atoms: _175  and  _176
REMARK   77  A    between atoms: _175  and  _178
REMARK   78  A    between atoms: _178  and  _179
REMARK   79  A    between atoms: _179  and  _180
REMARK   80  A    between atoms: _182  and  _184
REMARK   81  A    between atoms: _184  and  _185
REMARK   82  A    between atoms: _184  and  _187
REMARK   83  A    between atoms: _190  and  _192
REMARK   84  A    between atoms: _192  and  _193
REMARK   85  A    between atoms: _195  and  _197
REMARK   86  A    between atoms: _197  and  _198
REMARK   87  A    between atoms: _197  and  _200
REMARK   88  A    between atoms: _200  and  _201
REMARK   89  A    between atoms: _201  and  _202
REMARK   90  A    between atoms: _207  and  _209
REMARK   91  A    between atoms: _209  and  _210
REMARK   92  A    between atoms: _209  and  _212
REMARK   93  A    between atoms: _212  and  _213
REMARK   94  A    between atoms: _216  and  _218
REMARK   95  A    between atoms: _218  and  _219
REMARK   96  A    between atoms: _221  and  _223
REMARK   97  A    between atoms: _223  and  _224
REMARK   98  A    between atoms: _223  and  _226
REMARK   99  A    between atoms: _226  and  _227
REMARK  100  A    between atoms: _233  and  _235
REMARK  101  A    between atoms: _235  and  _236
REMARK  102  A    between atoms: _235  and  _238
REMARK  103  A    between atoms: _238  and  _239
REMARK  104  A    between atoms: _244  and  _245
REMARK  105  A    between atoms: _247  and  _249
REMARK  106  A    between atoms: _249  and  _250
REMARK  107  A    between atoms: _249  and  _252
REMARK  108  A    between atoms: _255  and  _257
REMARK  109  A    between atoms: _257  and  _258
REMARK  110  A    between atoms: _261  and  _263
REMARK  111  A    between atoms: _263  and  _264
REMARK  112  A    between atoms: _263  and  _266
REMARK  113  A    between atoms: _266  and  _267
REMARK                            x       y       z     vdW  Elec       q    Type
REMARK                         _______ _______ _______ _____ _____    ______ ____
ROOT
ATOM      1  O   HOH     1       3.888  19.555  36.422  0.00  0.00    +0.000 OA
ENDROOT
TORSDOF 0
REMARK  Name = ../refined-set-2016/4lm1/4lm1_pocket.pdb
REMARK  113 active torsions:
REMARK  status: ('A' for Active; 'I' for Inactive)
REMARK    1  A    between atoms: _1  and  _3
REMARK    2  A    between atoms: _3  and  _4
REMARK    3  A    between atoms: _3  and  _6
REMARK    4  A    between atoms: _6  and  _7
REMARK    5  A    between atoms: _12  and  _13
REMARK    6  A    between atoms: _15  and  _17
REMARK    7  A    between atoms: _17  and  _18
REMARK    8  A    between atoms: _17  and  _20
REMARK    9  A    between atoms: _20  and  _21
REMARK   10  A    between atoms: _26  and  _28
REMARK   11  A    between atoms: _28  and  _29
REMARK   12  A    between atoms: _28  and  _31
REMARK   13  A    between atoms: _31  and  _32
REMARK   14  A    between atoms: _36  and  NI_277
REMARK   15  A    between atoms: _37  and  _39
REMARK   16  A    between atoms: _39  and  _40
REMARK   17  A    between atoms: _39  and  _42
REMARK   18  A    between atoms: _42  and  _43
REMARK   19  A    between atoms: _46  and  _48
REMARK   20  A    between atoms: _48  and  _49
REMARK   21  A    between atoms: _48  and  _51
REMARK   22  A    between atoms: _51  and  _52
REMARK   23  A    between atoms: _55  and  _57
REMARK   24  A    between atoms: _57  and  _58
REMARK   25  A    between atoms: _57  and  _60
REMARK   26  A    between atoms: _60  and  _61
REMARK   27  A    between atoms: _61  and  _63
REMARK   28  A    between atoms: _63  and  NI_277
REMARK   29  A    between atoms: _64  and  _66
REMARK   30  A    between atoms: _66  and  _67
REMARK   31  A    between atoms: _66  and  _69
REMARK   32  A    between atoms: _69  and  _70
REMARK   33  A    between atoms: _73  and  _75
REMARK   34  A    between atoms: _75  and  _76
REMARK   35  A    between atoms: _75  and  _78
REMARK   36  A    between atoms: _80  and  _82
REMARK   37  A    between atoms: _82  and  _83
REMARK   38  A    between atoms: _82  and  _85
REMARK   39  A    between atoms: _85  and  _86
REMARK   40  A    between atoms: _88  and  _90
REMARK   41  A    between atoms: _90  and  _91
REMARK   42  A    between atoms: _90  and  _93
REMARK   43  A    between atoms: _96  and  _98
REMARK   44  A    between atoms: _98  and  _99
REMARK   45  A    between atoms: _98  and  _101
REMARK   46  A    between atoms: _101  and  _102
REMARK   47  A    between atoms: _105  and  _107
REMARK   48  A    between atoms: _107  and  _108
REMARK   49  A    between atoms: _107  and  _110
REMARK   50  A    between atoms: _110  and  _111
REMARK   51  A    between atoms: _114  and  _116
REMARK   52  A    between atoms: _116  and  _117
REMARK   53  A    between atoms: _120  and  _122
REMARK   54  A    between atoms: _122  and  _123
REMARK   55  A    between atoms: _122  and  _125
REMARK   56  A    between atoms: _125  and  _126
REMARK   57  A    between atoms: _129  and  _131
REMARK   58  A    between atoms: _131  and  _132
REMARK   59  A    between atoms: _131  and  _134
REMARK   60  A    between atoms: _134  and  _135
REMARK   61  A    between atoms: _140  and  _141
REMARK   62  A    between atoms: _143  and  _145
REMARK   63  A    between atoms: _145  and  _146
REMARK   64  A    between atoms: _145  and  _148
REMARK   65  A    between atoms: _148  and  _149
REMARK   66  A    between atoms: _155  and  _157
REMARK   67  A    between atoms: _157  and  _158
REMARK   68  A    between atoms: _157  and  _160
REMARK   69  A    between atoms: _160  and  _161
REMARK   70  A    between atoms: _164  and  _166
REMARK   71  A    between atoms: _166  and  _167
REMARK   72  A    between atoms: _166  and  _169
REMARK   73  A    between atoms: _169  and  _170
REMARK   74  A    between atoms: _170  and  _171
REMARK   75  A    between atoms: _173  and  _175
REMARK   76  A    between atoms: _175  and  _176
REMARK   77  A    between atoms: _175  and  _178
REMARK   78  A    between atoms: _178  and  _179
REMARK   79  A    between atoms: _179  and  _180
REMARK   80  A    between atoms: _182  and  _184
REMARK   81  A    between atoms: _184  and  _185
REMARK   82  A    between atoms: _184  and  _187
REMARK   83  A    between atoms: _190  and  _192
REMARK   84  A    between atoms: _192  and  _193
REMARK   85  A    between atoms: _195  and  _197
REMARK   86  A    between atoms: _197  and  _198
REMARK   87  A    between atoms: _197  and  _200
REMARK   88  A    between atoms: _200  and  _201
REMARK   89  A    between atoms: _201  and  _202
REMARK   90  A    between atoms: _207  and  _209
REMARK   91  A    between atoms: _209  and  _210
REMARK   92  A    between atoms: _209  and  _212
REMARK   93  A    between atoms: _212  and  _213
REMARK   94  A    between atoms: _216  and  _218
REMARK   95  A    between atoms: _218  and  _219
REMARK   96  A    between atoms: _221  and  _223
REMARK   97  A    between atoms: _223  and  _224
REMARK   98  A    between atoms: _223  and  _226
REMARK   99  A    between atoms: _226  and  _227
REMARK  100  A    between atoms: _233  and  _235
REMARK  101  A    between atoms: _235  and  _236
REMARK  102  A    between atoms: _235  and  _238
REMARK  103  A    between atoms: _238  and  _239
REMARK  104  A    between atoms: _244  and  _245
REMARK  105  A    between atoms: _247  and  _249
REMARK  106  A    between atoms: _249  and  _250
REMARK  107  A    between atoms: _249  and  _252
REMARK  108  A    between atoms: _255  and  _257
REMARK  109  A    between atoms: _257  and  _258
REMARK  110  A    between atoms: _261  and  _263
REMARK  111  A    between atoms: _263  and  _264
REMARK  112  A    between atoms: _263  and  _266
REMARK  113  A    between atoms: _266  and  _267
REMARK                            x       y       z     vdW  Elec       q    Type
REMARK                         _______ _______ _______ _____ _____    ______ ____
ROOT
ATOM      1  O   HOH     1      12.844  11.159  40.766  0.00  0.00    +0.000 OA
ENDROOT
TORSDOF 0
REMARK  Name = ../refined-set-2016/4lm1/4lm1_pocket.pdb
REMARK  113 active torsions:
REMARK  status: ('A' for Active; 'I' for Inactive)
REMARK    1  A    between atoms: _1  and  _3
REMARK    2  A    between atoms: _3  and  _4
REMARK    3  A    between atoms: _3  and  _6
REMARK    4  A    between atoms: _6  and  _7
REMARK    5  A    between atoms: _12  and  _13
REMARK    6  A    between atoms: _15  and  _17
REMARK    7  A    between atoms: _17  and  _18
REMARK    8  A    between atoms: _17  and  _20
REMARK    9  A    between atoms: _20  and  _21
REMARK   10  A    between atoms: _26  and  _28
REMARK   11  A    between atoms: _28  and  _29
REMARK   12  A    between atoms: _28  and  _31
REMARK   13  A    between atoms: _31  and  _32
REMARK   14  A    between atoms: _36  and  NI_277
REMARK   15  A    between atoms: _37  and  _39
REMARK   16  A    between atoms: _39  and  _40
REMARK   17  A    between atoms: _39  and  _42
REMARK   18  A    between atoms: _42  and  _43
REMARK   19  A    between atoms: _46  and  _48
REMARK   20  A    between atoms: _48  and  _49
REMARK   21  A    between atoms: _48  and  _51
REMARK   22  A    between atoms: _51  and  _52
REMARK   23  A    between atoms: _55  and  _57
REMARK   24  A    between atoms: _57  and  _58
REMARK   25  A    between atoms: _57  and  _60
REMARK   26  A    between atoms: _60  and  _61
REMARK   27  A    between atoms: _61  and  _63
REMARK   28  A    between atoms: _63  and  NI_277
REMARK   29  A    between atoms: _64  and  _66
REMARK   30  A    between atoms: _66  and  _67
REMARK   31  A    between atoms: _66  and  _69
REMARK   32  A    between atoms: _69  and  _70
REMARK   33  A    between atoms: _73  and  _75
REMARK   34  A    between atoms: _75  and  _76
REMARK   35  A    between atoms: _75  and  _78
REMARK   36  A    between atoms: _80  and  _82
REMARK   37  A    between atoms: _82  and  _83
REMARK   38  A    between atoms: _82  and  _85
REMARK   39  A    between atoms: _85  and  _86
REMARK   40  A    between atoms: _88  and  _90
REMARK   41  A    between atoms: _90  and  _91
REMARK   42  A    between atoms: _90  and  _93
REMARK   43  A    between atoms: _96  and  _98
REMARK   44  A    between atoms: _98  and  _99
REMARK   45  A    between atoms: _98  and  _101
REMARK   46  A    between atoms: _101  and  _102
REMARK   47  A    between atoms: _105  and  _107
REMARK   48  A    between atoms: _107  and  _108
REMARK   49  A    between atoms: _107  and  _110
REMARK   50  A    between atoms: _110  and  _111
REMARK   51  A    between atoms: _114  and  _116
REMARK   52  A    between atoms: _116  and  _117
REMARK   53  A    between atoms: _120  and  _122
REMARK   54  A    between atoms: _122  and  _123
REMARK   55  A    between atoms: _122  and  _125
REMARK   56  A    between atoms: _125  and  _126
REMARK   57  A    between atoms: _129  and  _131
REMARK   58  A    between atoms: _131  and  _132
REMARK   59  A    between atoms: _131  and  _134
REMARK   60  A    between atoms: _134  and  _135
REMARK   61  A    between atoms: _140  and  _141
REMARK   62  A    between atoms: _143  and  _145
REMARK   63  A    between atoms: _145  and  _146
REMARK   64  A    between atoms: _145  and  _148
REMARK   65  A    between atoms: _148  and  _149
REMARK   66  A    between atoms: _155  and  _157
REMARK   67  A    between atoms: _157  and  _158
REMARK   68  A    between atoms: _157  and  _160
REMARK   69  A    between atoms: _160  and  _161
REMARK   70  A    between atoms: _164  and  _166
REMARK   71  A    between atoms: _166  and  _167
REMARK   72  A    between atoms: _166  and  _169
REMARK   73  A    between atoms: _169  and  _170
REMARK   74  A    between atoms: _170  and  _171
REMARK   75  A    between atoms: _173  and  _175
REMARK   76  A    between atoms: _175  and  _176
REMARK   77  A    between atoms: _175  and  _178
REMARK   78  A    between atoms: _178  and  _179
REMARK   79  A    between atoms: _179  and  _180
REMARK   80  A    between atoms: _182  and  _184
REMARK   81  A    between atoms: _184  and  _185
REMARK   82  A    between atoms: _184  and  _187
REMARK   83  A    between atoms: _190  and  _192
REMARK   84  A    between atoms: _192  and  _193
REMARK   85  A    between atoms: _195  and  _197
REMARK   86  A    between atoms: _197  and  _198
REMARK   87  A    between atoms: _197  and  _200
REMARK   88  A    between atoms: _200  and  _201
REMARK   89  A    between atoms: _201  and  _202
REMARK   90  A    between atoms: _207  and  _209
REMARK   91  A    between atoms: _209  and  _210
REMARK   92  A    between atoms: _209  and  _212
REMARK   93  A    between atoms: _212  and  _213
REMARK   94  A    between atoms: _216  and  _218
REMARK   95  A    between atoms: _218  and  _219
REMARK   96  A    between atoms: _221  and  _223
REMARK   97  A    between atoms: _223  and  _224
REMARK   98  A    between atoms: _223  and  _226
REMARK   99  A    between atoms: _226  and  _227
REMARK  100  A    between atoms: _233  and  _235
REMARK  101  A    between atoms: _235  and  _236
REMARK  102  A    between atoms: _235  and  _238
REMARK  103  A    between atoms: _238  and  _239
REMARK  104  A    between atoms: _244  and  _245
REMARK  105  A    between atoms: _247  and  _249
REMARK  106  A    between atoms: _249  and  _250
REMARK  107  A    between atoms: _249  and  _252
REMARK  108  A    between atoms: _255  and  _257
REMARK  109  A    between atoms: _257  and  _258
REMARK  110  A    between atoms: _261  and  _263
REMARK  111  A    between atoms: _263  and  _264
REMARK  112  A    between atoms: _263  and  _266
REMARK  113  A    between atoms: _266  and  _267
REMARK                            x       y       z     vdW  Elec       q    Type
REMARK                         _______ _______ _______ _____ _____    ______ ____
ROOT
ATOM      1  O   HOH     1       8.382  12.017  51.566  0.00  0.00    +0.000 OA
ENDROOT
TORSDOF 0
REMARK  Name = ../refined-set-2016/4lm1/4lm1_pocket.pdb
REMARK  113 active torsions:
REMARK  status: ('A' for Active; 'I' for Inactive)
REMARK    1  A    between atoms: _1  and  _3
REMARK    2  A    between atoms: _3  and  _4
REMARK    3  A    between atoms: _3  and  _6
REMARK    4  A    between atoms: _6  and  _7
REMARK    5  A    between atoms: _12  and  _13
REMARK    6  A    between atoms: _15  and  _17
REMARK    7  A    between atoms: _17  and  _18
REMARK    8  A    between atoms: _17  and  _20
REMARK    9  A    between atoms: _20  and  _21
REMARK   10  A    between atoms: _26  and  _28
REMARK   11  A    between atoms: _28  and  _29
REMARK   12  A    between atoms: _28  and  _31
REMARK   13  A    between atoms: _31  and  _32
REMARK   14  A    between atoms: _36  and  NI_277
REMARK   15  A    between atoms: _37  and  _39
REMARK   16  A    between atoms: _39  and  _40
REMARK   17  A    between atoms: _39  and  _42
REMARK   18  A    between atoms: _42  and  _43
REMARK   19  A    between atoms: _46  and  _48
REMARK   20  A    between atoms: _48  and  _49
REMARK   21  A    between atoms: _48  and  _51
REMARK   22  A    between atoms: _51  and  _52
REMARK   23  A    between atoms: _55  and  _57
REMARK   24  A    between atoms: _57  and  _58
REMARK   25  A    between atoms: _57  and  _60
REMARK   26  A    between atoms: _60  and  _61
REMARK   27  A    between atoms: _61  and  _63
REMARK   28  A    between atoms: _63  and  NI_277
REMARK   29  A    between atoms: _64  and  _66
REMARK   30  A    between atoms: _66  and  _67
REMARK   31  A    between atoms: _66  and  _69
REMARK   32  A    between atoms: _69  and  _70
REMARK   33  A    between atoms: _73  and  _75
REMARK   34  A    between atoms: _75  and  _76
REMARK   35  A    between atoms: _75  and  _78
REMARK   36  A    between atoms: _80  and  _82
REMARK   37  A    between atoms: _82  and  _83
REMARK   38  A    between atoms: _82  and  _85
REMARK   39  A    between atoms: _85  and  _86
REMARK   40  A    between atoms: _88  and  _90
REMARK   41  A    between atoms: _90  and  _91
REMARK   42  A    between atoms: _90  and  _93
REMARK   43  A    between atoms: _96  and  _98
REMARK   44  A    between atoms: _98  and  _99
REMARK   45  A    between atoms: _98  and  _101
REMARK   46  A    between atoms: _101  and  _102
REMARK   47  A    between atoms: _105  and  _107
REMARK   48  A    between atoms: _107  and  _108
REMARK   49  A    between atoms: _107  and  _110
REMARK   50  A    between atoms: _110  and  _111
REMARK   51  A    between atoms: _114  and  _116
REMARK   52  A    between atoms: _116  and  _117
REMARK   53  A    between atoms: _120  and  _122
REMARK   54  A    between atoms: _122  and  _123
REMARK   55  A    between atoms: _122  and  _125
REMARK   56  A    between atoms: _125  and  _126
REMARK   57  A    between atoms: _129  and  _131
REMARK   58  A    between atoms: _131  and  _132
REMARK   59  A    between atoms: _131  and  _134
REMARK   60  A    between atoms: _134  and  _135
REMARK   61  A    between atoms: _140  and  _141
REMARK   62  A    between atoms: _143  and  _145
REMARK   63  A    between atoms: _145  and  _146
REMARK   64  A    between atoms: _145  and  _148
REMARK   65  A    between atoms: _148  and  _149
REMARK   66  A    between atoms: _155  and  _157
REMARK   67  A    between atoms: _157  and  _158
REMARK   68  A    between atoms: _157  and  _160
REMARK   69  A    between atoms: _160  and  _161
REMARK   70  A    between atoms: _164  and  _166
REMARK   71  A    between atoms: _166  and  _167
REMARK   72  A    between atoms: _166  and  _169
REMARK   73  A    between atoms: _169  and  _170
REMARK   74  A    between atoms: _170  and  _171
REMARK   75  A    between atoms: _173  and  _175
REMARK   76  A    between atoms: _175  and  _176
REMARK   77  A    between atoms: _175  and  _178
REMARK   78  A    between atoms: _178  and  _179
REMARK   79  A    between atoms: _179  and  _180
REMARK   80  A    between atoms: _182  and  _184
REMARK   81  A    between atoms: _184  and  _185
REMARK   82  A    between atoms: _184  and  _187
REMARK   83  A    between atoms: _190  and  _192
REMARK   84  A    between atoms: _192  and  _193
REMARK   85  A    between atoms: _195  and  _197
REMARK   86  A    between atoms: _197  and  _198
REMARK   87  A    between atoms: _197  and  _200
REMARK   88  A    between atoms: _200  and  _201
REMARK   89  A    between atoms: _201  and  _202
REMARK   90  A    between atoms: _207  and  _209
REMARK   91  A    between atoms: _209  and  _210
REMARK   92  A    between atoms: _209  and  _212
REMARK   93  A    between atoms: _212  and  _213
REMARK   94  A    between atoms: _216  and  _218
REMARK   95  A    between atoms: _218  and  _219
REMARK   96  A    between atoms: _221  and  _223
REMARK   97  A    between atoms: _223  and  _224
REMARK   98  A    between atoms: _223  and  _226
REMARK   99  A    between atoms: _226  and  _227
REMARK  100  A    between atoms: _233  and  _235
REMARK  101  A    between atoms: _235  and  _236
REMARK  102  A    between atoms: _235  and  _238
REMARK  103  A    between atoms: _238  and  _239
REMARK  104  A    between atoms: _244  and  _245
REMARK  105  A    between atoms: _247  and  _249
REMARK  106  A    between atoms: _249  and  _250
REMARK  107  A    between atoms: _249  and  _252
REMARK  108  A    between atoms: _255  and  _257
REMARK  109  A    between atoms: _257  and  _258
REMARK  110  A    between atoms: _261  and  _263
REMARK  111  A    between atoms: _263  and  _264
REMARK  112  A    between atoms: _263  and  _266
REMARK  113  A    between atoms: _266  and  _267
REMARK                            x       y       z     vdW  Elec       q    Type
REMARK                         _______ _______ _______ _____ _____    ______ ____
ROOT
ATOM      1  O   HOH     1      11.384   8.922  40.055  0.00  0.00    +0.000 OA
ENDROOT
TORSDOF 0
REMARK  Name = ../refined-set-2016/4lm1/4lm1_pocket.pdb
REMARK  113 active torsions:
REMARK  status: ('A' for Active; 'I' for Inactive)
REMARK    1  A    between atoms: _1  and  _3
REMARK    2  A    between atoms: _3  and  _4
REMARK    3  A    between atoms: _3  and  _6
REMARK    4  A    between atoms: _6  and  _7
REMARK    5  A    between atoms: _12  and  _13
REMARK    6  A    between atoms: _15  and  _17
REMARK    7  A    between atoms: _17  and  _18
REMARK    8  A    between atoms: _17  and  _20
REMARK    9  A    between atoms: _20  and  _21
REMARK   10  A    between atoms: _26  and  _28
REMARK   11  A    between atoms: _28  and  _29
REMARK   12  A    between atoms: _28  and  _31
REMARK   13  A    between atoms: _31  and  _32
REMARK   14  A    between atoms: _36  and  NI_277
REMARK   15  A    between atoms: _37  and  _39
REMARK   16  A    between atoms: _39  and  _40
REMARK   17  A    between atoms: _39  and  _42
REMARK   18  A    between atoms: _42  and  _43
REMARK   19  A    between atoms: _46  and  _48
REMARK   20  A    between atoms: _48  and  _49
REMARK   21  A    between atoms: _48  and  _51
REMARK   22  A    between atoms: _51  and  _52
REMARK   23  A    between atoms: _55  and  _57
REMARK   24  A    between atoms: _57  and  _58
REMARK   25  A    between atoms: _57  and  _60
REMARK   26  A    between atoms: _60  and  _61
REMARK   27  A    between atoms: _61  and  _63
REMARK   28  A    between atoms: _63  and  NI_277
REMARK   29  A    between atoms: _64  and  _66
REMARK   30  A    between atoms: _66  and  _67
REMARK   31  A    between atoms: _66  and  _69
REMARK   32  A    between atoms: _69  and  _70
REMARK   33  A    between atoms: _73  and  _75
REMARK   34  A    between atoms: _75  and  _76
REMARK   35  A    between atoms: _75  and  _78
REMARK   36  A    between atoms: _80  and  _82
REMARK   37  A    between atoms: _82  and  _83
REMARK   38  A    between atoms: _82  and  _85
REMARK   39  A    between atoms: _85  and  _86
REMARK   40  A    between atoms: _88  and  _90
REMARK   41  A    between atoms: _90  and  _91
REMARK   42  A    between atoms: _90  and  _93
REMARK   43  A    between atoms: _96  and  _98
REMARK   44  A    between atoms: _98  and  _99
REMARK   45  A    between atoms: _98  and  _101
REMARK   46  A    between atoms: _101  and  _102
REMARK   47  A    between atoms: _105  and  _107
REMARK   48  A    between atoms: _107  and  _108
REMARK   49  A    between atoms: _107  and  _110
REMARK   50  A    between atoms: _110  and  _111
REMARK   51  A    between atoms: _114  and  _116
REMARK   52  A    between atoms: _116  and  _117
REMARK   53  A    between atoms: _120  and  _122
REMARK   54  A    between atoms: _122  and  _123
REMARK   55  A    between atoms: _122  and  _125
REMARK   56  A    between atoms: _125  and  _126
REMARK   57  A    between atoms: _129  and  _131
REMARK   58  A    between atoms: _131  and  _132
REMARK   59  A    between atoms: _131  and  _134
REMARK   60  A    between atoms: _134  and  _135
REMARK   61  A    between atoms: _140  and  _141
REMARK   62  A    between atoms: _143  and  _145
REMARK   63  A    between atoms: _145  and  _146
REMARK   64  A    between atoms: _145  and  _148
REMARK   65  A    between atoms: _148  and  _149
REMARK   66  A    between atoms: _155  and  _157
REMARK   67  A    between atoms: _157  and  _158
REMARK   68  A    between atoms: _157  and  _160
REMARK   69  A    between atoms: _160  and  _161
REMARK   70  A    between atoms: _164  and  _166
REMARK   71  A    between atoms: _166  and  _167
REMARK   72  A    between atoms: _166  and  _169
REMARK   73  A    between atoms: _169  and  _170
REMARK   74  A    between atoms: _170  and  _171
REMARK   75  A    between atoms: _173  and  _175
REMARK   76  A    between atoms: _175  and  _176
REMARK   77  A    between atoms: _175  and  _178
REMARK   78  A    between atoms: _178  and  _179
REMARK   79  A    between atoms: _179  and  _180
REMARK   80  A    between atoms: _182  and  _184
REMARK   81  A    between atoms: _184  and  _185
REMARK   82  A    between atoms: _184  and  _187
REMARK   83  A    between atoms: _190  and  _192
REMARK   84  A    between atoms: _192  and  _193
REMARK   85  A    between atoms: _195  and  _197
REMARK   86  A    between atoms: _197  and  _198
REMARK   87  A    between atoms: _197  and  _200
REMARK   88  A    between atoms: _200  and  _201
REMARK   89  A    between atoms: _201  and  _202
REMARK   90  A    between atoms: _207  and  _209
REMARK   91  A    between atoms: _209  and  _210
REMARK   92  A    between atoms: _209  and  _212
REMARK   93  A    between atoms: _212  and  _213
REMARK   94  A    between atoms: _216  and  _218
REMARK   95  A    between atoms: _218  and  _219
REMARK   96  A    between atoms: _221  and  _223
REMARK   97  A    between atoms: _223  and  _224
REMARK   98  A    between atoms: _223  and  _226
REMARK   99  A    between atoms: _226  and  _227
REMARK  100  A    between atoms: _233  and  _235
REMARK  101  A    between atoms: _235  and  _236
REMARK  102  A    between atoms: _235  and  _238
REMARK  103  A    between atoms: _238  and  _239
REMARK  104  A    between atoms: _244  and  _245
REMARK  105  A    between atoms: _247  and  _249
REMARK  106  A    between atoms: _249  and  _250
REMARK  107  A    between atoms: _249  and  _252
REMARK  108  A    between atoms: _255  and  _257
REMARK  109  A    between atoms: _257  and  _258
REMARK  110  A    between atoms: _261  and  _263
REMARK  111  A    between atoms: _263  and  _264
REMARK  112  A    between atoms: _263  and  _266
REMARK  113  A    between atoms: _266  and  _267
REMARK                            x       y       z     vdW  Elec       q    Type
REMARK                         _______ _______ _______ _____ _____    ______ ____
ROOT
ATOM      1  O   HOH     1       4.326  17.144  48.236  0.00  0.00    +0.000 OA
ENDROOT
TORSDOF 0
REMARK  Name = ../refined-set-2016/4lm1/4lm1_pocket.pdb
REMARK  113 active torsions:
REMARK  status: ('A' for Active; 'I' for Inactive)
REMARK    1  A    between atoms: _1  and  _3
REMARK    2  A    between atoms: _3  and  _4
REMARK    3  A    between atoms: _3  and  _6
REMARK    4  A    between atoms: _6  and  _7
REMARK    5  A    between atoms: _12  and  _13
REMARK    6  A    between atoms: _15  and  _17
REMARK    7  A    between atoms: _17  and  _18
REMARK    8  A    between atoms: _17  and  _20
REMARK    9  A    between atoms: _20  and  _21
REMARK   10  A    between atoms: _26  and  _28
REMARK   11  A    between atoms: _28  and  _29
REMARK   12  A    between atoms: _28  and  _31
REMARK   13  A    between atoms: _31  and  _32
REMARK   14  A    between atoms: _36  and  NI_277
REMARK   15  A    between atoms: _37  and  _39
REMARK   16  A    between atoms: _39  and  _40
REMARK   17  A    between atoms: _39  and  _42
REMARK   18  A    between atoms: _42  and  _43
REMARK   19  A    between atoms: _46  and  _48
REMARK   20  A    between atoms: _48  and  _49
REMARK   21  A    between atoms: _48  and  _51
REMARK   22  A    between atoms: _51  and  _52
REMARK   23  A    between atoms: _55  and  _57
REMARK   24  A    between atoms: _57  and  _58
REMARK   25  A    between atoms: _57  and  _60
REMARK   26  A    between atoms: _60  and  _61
REMARK   27  A    between atoms: _61  and  _63
REMARK   28  A    between atoms: _63  and  NI_277
REMARK   29  A    between atoms: _64  and  _66
REMARK   30  A    between atoms: _66  and  _67
REMARK   31  A    between atoms: _66  and  _69
REMARK   32  A    between atoms: _69  and  _70
REMARK   33  A    between atoms: _73  and  _75
REMARK   34  A    between atoms: _75  and  _76
REMARK   35  A    between atoms: _75  and  _78
REMARK   36  A    between atoms: _80  and  _82
REMARK   37  A    between atoms: _82  and  _83
REMARK   38  A    between atoms: _82  and  _85
REMARK   39  A    between atoms: _85  and  _86
REMARK   40  A    between atoms: _88  and  _90
REMARK   41  A    between atoms: _90  and  _91
REMARK   42  A    between atoms: _90  and  _93
REMARK   43  A    between atoms: _96  and  _98
REMARK   44  A    between atoms: _98  and  _99
REMARK   45  A    between atoms: _98  and  _101
REMARK   46  A    between atoms: _101  and  _102
REMARK   47  A    between atoms: _105  and  _107
REMARK   48  A    between atoms: _107  and  _108
REMARK   49  A    between atoms: _107  and  _110
REMARK   50  A    between atoms: _110  and  _111
REMARK   51  A    between atoms: _114  and  _116
REMARK   52  A    between atoms: _116  and  _117
REMARK   53  A    between atoms: _120  and  _122
REMARK   54  A    between atoms: _122  and  _123
REMARK   55  A    between atoms: _122  and  _125
REMARK   56  A    between atoms: _125  and  _126
REMARK   57  A    between atoms: _129  and  _131
REMARK   58  A    between atoms: _131  and  _132
REMARK   59  A    between atoms: _131  and  _134
REMARK   60  A    between atoms: _134  and  _135
REMARK   61  A    between atoms: _140  and  _141
REMARK   62  A    between atoms: _143  and  _145
REMARK   63  A    between atoms: _145  and  _146
REMARK   64  A    between atoms: _145  and  _148
REMARK   65  A    between atoms: _148  and  _149
REMARK   66  A    between atoms: _155  and  _157
REMARK   67  A    between atoms: _157  and  _158
REMARK   68  A    between atoms: _157  and  _160
REMARK   69  A    between atoms: _160  and  _161
REMARK   70  A    between atoms: _164  and  _166
REMARK   71  A    between atoms: _166  and  _167
REMARK   72  A    between atoms: _166  and  _169
REMARK   73  A    between atoms: _169  and  _170
REMARK   74  A    between atoms: _170  and  _171
REMARK   75  A    between atoms: _173  and  _175
REMARK   76  A    between atoms: _175  and  _176
REMARK   77  A    between atoms: _175  and  _178
REMARK   78  A    between atoms: _178  and  _179
REMARK   79  A    between atoms: _179  and  _180
REMARK   80  A    between atoms: _182  and  _184
REMARK   81  A    between atoms: _184  and  _185
REMARK   82  A    between atoms: _184  and  _187
REMARK   83  A    between atoms: _190  and  _192
REMARK   84  A    between atoms: _192  and  _193
REMARK   85  A    between atoms: _195  and  _197
REMARK   86  A    between atoms: _197  and  _198
REMARK   87  A    between atoms: _197  and  _200
REMARK   88  A    between atoms: _200  and  _201
REMARK   89  A    between atoms: _201  and  _202
REMARK   90  A    between atoms: _207  and  _209
REMARK   91  A    between atoms: _209  and  _210
REMARK   92  A    between atoms: _209  and  _212
REMARK   93  A    between atoms: _212  and  _213
REMARK   94  A    between atoms: _216  and  _218
REMARK   95  A    between atoms: _218  and  _219
REMARK   96  A    between atoms: _221  and  _223
REMARK   97  A    between atoms: _223  and  _224
REMARK   98  A    between atoms: _223  and  _226
REMARK   99  A    between atoms: _226  and  _227
REMARK  100  A    between atoms: _233  and  _235
REMARK  101  A    between atoms: _235  and  _236
REMARK  102  A    between atoms: _235  and  _238
REMARK  103  A    between atoms: _238  and  _239
REMARK  104  A    between atoms: _244  and  _245
REMARK  105  A    between atoms: _247  and  _249
REMARK  106  A    between atoms: _249  and  _250
REMARK  107  A    between atoms: _249  and  _252
REMARK  108  A    between atoms: _255  and  _257
REMARK  109  A    between atoms: _257  and  _258
REMARK  110  A    between atoms: _261  and  _263
REMARK  111  A    between atoms: _263  and  _264
REMARK  112  A    between atoms: _263  and  _266
REMARK  113  A    between atoms: _266  and  _267
REMARK                            x       y       z     vdW  Elec       q    Type
REMARK                         _______ _______ _______ _____ _____    ______ ____
ROOT
ATOM      1  O   HOH     1      10.327   6.321  43.816  0.00  0.00    +0.000 OA
ENDROOT
TORSDOF 0
REMARK  Name = ../refined-set-2016/4lm1/4lm1_pocket.pdb
REMARK  113 active torsions:
REMARK  status: ('A' for Active; 'I' for Inactive)
REMARK    1  A    between atoms: _1  and  _3
REMARK    2  A    between atoms: _3  and  _4
REMARK    3  A    between atoms: _3  and  _6
REMARK    4  A    between atoms: _6  and  _7
REMARK    5  A    between atoms: _12  and  _13
REMARK    6  A    between atoms: _15  and  _17
REMARK    7  A    between atoms: _17  and  _18
REMARK    8  A    between atoms: _17  and  _20
REMARK    9  A    between atoms: _20  and  _21
REMARK   10  A    between atoms: _26  and  _28
REMARK   11  A    between atoms: _28  and  _29
REMARK   12  A    between atoms: _28  and  _31
REMARK   13  A    between atoms: _31  and  _32
REMARK   14  A    between atoms: _36  and  NI_277
REMARK   15  A    between atoms: _37  and  _39
REMARK   16  A    between atoms: _39  and  _40
REMARK   17  A    between atoms: _39  and  _42
REMARK   18  A    between atoms: _42  and  _43
REMARK   19  A    between atoms: _46  and  _48
REMARK   20  A    between atoms: _48  and  _49
REMARK   21  A    between atoms: _48  and  _51
REMARK   22  A    between atoms: _51  and  _52
REMARK   23  A    between atoms: _55  and  _57
REMARK   24  A    between atoms: _57  and  _58
REMARK   25  A    between atoms: _57  and  _60
REMARK   26  A    between atoms: _60  and  _61
REMARK   27  A    between atoms: _61  and  _63
REMARK   28  A    between atoms: _63  and  NI_277
REMARK   29  A    between atoms: _64  and  _66
REMARK   30  A    between atoms: _66  and  _67
REMARK   31  A    between atoms: _66  and  _69
REMARK   32  A    between atoms: _69  and  _70
REMARK   33  A    between atoms: _73  and  _75
REMARK   34  A    between atoms: _75  and  _76
REMARK   35  A    between atoms: _75  and  _78
REMARK   36  A    between atoms: _80  and  _82
REMARK   37  A    between atoms: _82  and  _83
REMARK   38  A    between atoms: _82  and  _85
REMARK   39  A    between atoms: _85  and  _86
REMARK   40  A    between atoms: _88  and  _90
REMARK   41  A    between atoms: _90  and  _91
REMARK   42  A    between atoms: _90  and  _93
REMARK   43  A    between atoms: _96  and  _98
REMARK   44  A    between atoms: _98  and  _99
REMARK   45  A    between atoms: _98  and  _101
REMARK   46  A    between atoms: _101  and  _102
REMARK   47  A    between atoms: _105  and  _107
REMARK   48  A    between atoms: _107  and  _108
REMARK   49  A    between atoms: _107  and  _110
REMARK   50  A    between atoms: _110  and  _111
REMARK   51  A    between atoms: _114  and  _116
REMARK   52  A    between atoms: _116  and  _117
REMARK   53  A    between atoms: _120  and  _122
REMARK   54  A    between atoms: _122  and  _123
REMARK   55  A    between atoms: _122  and  _125
REMARK   56  A    between atoms: _125  and  _126
REMARK   57  A    between atoms: _129  and  _131
REMARK   58  A    between atoms: _131  and  _132
REMARK   59  A    between atoms: _131  and  _134
REMARK   60  A    between atoms: _134  and  _135
REMARK   61  A    between atoms: _140  and  _141
REMARK   62  A    between atoms: _143  and  _145
REMARK   63  A    between atoms: _145  and  _146
REMARK   64  A    between atoms: _145  and  _148
REMARK   65  A    between atoms: _148  and  _149
REMARK   66  A    between atoms: _155  and  _157
REMARK   67  A    between atoms: _157  and  _158
REMARK   68  A    between atoms: _157  and  _160
REMARK   69  A    between atoms: _160  and  _161
REMARK   70  A    between atoms: _164  and  _166
REMARK   71  A    between atoms: _166  and  _167
REMARK   72  A    between atoms: _166  and  _169
REMARK   73  A    between atoms: _169  and  _170
REMARK   74  A    between atoms: _170  and  _171
REMARK   75  A    between atoms: _173  and  _175
REMARK   76  A    between atoms: _175  and  _176
REMARK   77  A    between atoms: _175  and  _178
REMARK   78  A    between atoms: _178  and  _179
REMARK   79  A    between atoms: _179  and  _180
REMARK   80  A    between atoms: _182  and  _184
REMARK   81  A    between atoms: _184  and  _185
REMARK   82  A    between atoms: _184  and  _187
REMARK   83  A    between atoms: _190  and  _192
REMARK   84  A    between atoms: _192  and  _193
REMARK   85  A    between atoms: _195  and  _197
REMARK   86  A    between atoms: _197  and  _198
REMARK   87  A    between atoms: _197  and  _200
REMARK   88  A    between atoms: _200  and  _201
REMARK   89  A    between atoms: _201  and  _202
REMARK   90  A    between atoms: _207  and  _209
REMARK   91  A    between atoms: _209  and  _210
REMARK   92  A    between atoms: _209  and  _212
REMARK   93  A    between atoms: _212  and  _213
REMARK   94  A    between atoms: _216  and  _218
REMARK   95  A    between atoms: _218  and  _219
REMARK   96  A    between atoms: _221  and  _223
REMARK   97  A    between atoms: _223  and  _224
REMARK   98  A    between atoms: _223  and  _226
REMARK   99  A    between atoms: _226  and  _227
REMARK  100  A    between atoms: _233  and  _235
REMARK  101  A    between atoms: _235  and  _236
REMARK  102  A    between atoms: _235  and  _238
REMARK  103  A    between atoms: _238  and  _239
REMARK  104  A    between atoms: _244  and  _245
REMARK  105  A    between atoms: _247  and  _249
REMARK  106  A    between atoms: _249  and  _250
REMARK  107  A    between atoms: _249  and  _252
REMARK  108  A    between atoms: _255  and  _257
REMARK  109  A    between atoms: _257  and  _258
REMARK  110  A    between atoms: _261  and  _263
REMARK  111  A    between atoms: _263  and  _264
REMARK  112  A    between atoms: _263  and  _266
REMARK  113  A    between atoms: _266  and  _267
REMARK                            x       y       z     vdW  Elec       q    Type
REMARK                         _______ _______ _______ _____ _____    ______ ____
ROOT
ATOM      1  O   HOH     1       9.060   9.414  38.576  0.00  0.00    +0.000 OA
ENDROOT
TORSDOF 0
